352
 i =    83300, time =    83300.000, E =        25.0006216281
  H        11.1957600521        7.7604385689       31.1975369215
  C        11.9538857372        7.0859851328       31.5921166848
  H        12.9074233489        7.6949514293       31.6371456403
  C        12.0889198062        5.9517604151       30.5475629288
  C        11.4994569859        6.7830744992       33.0380250868
  C        10.7442416183        5.4169945661       29.9231842969
  H        12.7963724820        6.3222014697       29.8123081568
  H        12.5630273350        5.1028281270       31.0241282911
  H        12.2602871847        6.9980016609       33.8084208585
  H        10.6581105575        7.4175502601       33.3008848329
  H        11.1633260322        5.7472849243       33.2844303737
  C         9.9914363774        6.2884125432       28.8850098479
  H        10.0275592399        5.2076902198       30.7468837256
  H        10.9748686410        4.4356732585       29.5845729342
  C        10.3884324237        6.0521150310       27.4544010983
  H         8.8795163113        6.3170148011       28.9896987542
  H        10.3699420669        7.2203718041       29.2100407433
  C         9.3022204214        5.1547406754       26.7152048246
  H        11.3633267675        5.6279134057       27.4611340907
  H        10.7095725415        6.9408188707       26.9956679531
  C         8.0860499767        5.9618745109       26.2241021993
  H         9.8424867760        4.6674312456       25.9276589553
  H         9.0330175483        4.4544400301       27.5163013541
  C         7.1287663035        5.0666750182       25.4217108104
  H         7.5478920804        6.5297274239       26.9790443928
  H         8.6006224030        6.7109927491       25.6954539234
  C         6.8530912929        3.7685248932       26.2212662702
  C         7.8029757000        4.3262249475       24.3025917965
  C         5.8549180946        5.6637270469       24.9567757261
  C         7.1664974570        2.6678935320       25.4498986674
  C         6.3598804724        3.3972097338       27.5118822168
  C         7.7846739088        2.9574813905       24.2553924324
  C         8.3181049204        5.0076819435       23.2209645397
  H         5.3860007537        4.8786833975       24.3362443269
  H         5.9648336656        6.5316414819       24.3380055722
  C         4.8450919766        6.0885827995       26.0651449054
  S         6.6839823596        1.1269719826       26.1930248988
  C         6.2271122961        2.0484320779       27.6583679131
  H         6.1682036508        4.1355500213       28.2527368976
  C         8.2340432926        2.3041037408       23.1259163964
  H         8.3134901650        6.0297689099       23.0873557258
  C         8.7444049793        4.3859252911       22.0758334947
  H         4.8933906069        5.3889120630       26.9219404292
  H         4.9159987155        7.0593650823       26.4898547931
  C         3.3972096316        6.0799991030       25.5684831515
  C         5.8099132903        1.3852446978       28.9608559311
  C         8.7091546967        3.0625156707       21.9933873894
  H         8.1520015760        1.1762791510       23.0118263980
  C         9.1848897735        4.8213205674       20.8898801178
  H         3.1425443875        5.1652475747       25.1852677051
  H         3.2944629391        6.7809678463       24.7647367993
  C         2.4007035638        6.3493933227       26.7236955554
  C         5.8919846386       -0.0562076006       29.1502979388
  C         5.3249131515        2.2717008809       30.0557814295
  C         8.9294320416        2.4371641629       20.6311954337
  C         9.1876816064        3.7707877269       20.0118023646
  S         9.5300648434        6.3640555652       20.2233495233
  H         1.6280668595        6.8783226610       26.3099419599
  H         2.7872627485        7.0327812958       27.5315293564
  C         1.8460978528        5.0239806583       27.3166722729
  N         6.2885593540       -0.9595757660       28.1824252536
  C         5.5947303189       -0.5967506559       30.4012154637
  C         5.1822887806        1.6728620928       31.3034093006
  H         5.1455886550        3.3448380781       29.9411869602
  C         7.7633621845        1.6677255060       20.0158219477
  C        10.2017351734        1.4837076952       20.6058938638
  C         9.7315344177        4.2325948435       18.8011182574
  C         9.9049113189        5.5628819235       18.7133862649
  H         1.2104129366        4.5487909283       26.6462720704
  H         2.6154332601        4.3669651266       27.6357567226
  C         0.9015031326        5.2164492635       28.5622024860
  S         6.4168281323       -2.4035535472       28.9179587317
  N         5.7856232835       -1.9847461883       30.3420213016
  C         5.3631886491        0.2330998358       31.5366348896
  H         4.9448969269        2.2962729738       32.1061498901
  H         7.4798746062        0.9777743853       20.7518351053
  H         8.0924350396        1.2126365021       19.1134932543
  C         6.4716294293        2.4940175245       19.7987411405
  H        10.5148592443        1.1233132750       19.6364055143
  H         9.9780330088        0.6557068808       21.2773082970
  C        11.4229769948        2.2830308547       21.1848531943
  H         9.9412262736        3.5153679534       18.0736975920
  C        10.1887443862        6.3726305556       17.4415052121
  H         0.4134164127        4.2754893806       28.7080321831
  H         0.1065317404        5.9719673944       28.3742697875
  C         1.7004451866        5.5929905405       29.9129553281
  C         5.1613509368       -0.4586522538       32.7483418530
  H         6.5414115606        3.1147875013       18.8638273145
  H         6.4179958041        3.2490527468       20.5758865663
  C         5.1920548917        1.7064821152       19.6467837113
  H        11.1859285148        2.7434403842       22.1993780807
  H        11.7040781049        3.0607614981       20.5458780646
  C        12.6933491474        1.4994888970       21.3591941154
  C        10.1759503130        7.7877854530       17.3875147564
  C        10.3630007220        5.5793864251       16.2115442115
  H         1.8468519568        6.7210987926       29.9646030242
  H         1.2037045391        5.3300058739       30.8095846989
  C         3.0726843680        4.9333335605       29.9766865289
  H         4.8929440014       -1.4701387441       32.5383233428
  C         4.9420817935       -0.0705050850       34.0458979734
  H         4.3103001218        2.3853302295       19.9797070445
  H         5.1340116868        0.8121635593       20.2559991348
  C         4.9868554678        1.2335611993       18.1671771133
  H        12.5339403637        0.7021804245       22.0895232799
  H        12.9521338984        1.0231899682       20.4160749891
  C        13.8834911509        2.5171802910       21.6648661399
  N        10.0399316404        8.6994605724       18.4411923476
  C        10.4124021781        8.4242514695       16.1538131687
  C        10.6357830318        6.3166954998       15.0473429213
  H        10.3055611498        4.5177278431       16.1650063082
  H         3.8243580215        5.3177674070       29.3035983224
  H         3.5166938894        4.9954792942       30.9561017555
  H         3.0245840882        3.8754310907       29.9290035880
  S         4.6938090453        1.5120005013       34.5955137952
  C         4.9341497905       -1.1481528676       35.0213902121
  H         5.1478364604        1.9960966739       17.4441463359
  H         5.7694064679        0.4588765949       17.9670902160
  C         3.5364778245        0.7915755267       17.9331185239
  H        13.5846312318        3.3101418612       22.3369194555
  H        14.1942760213        3.0023437403       20.7415652207
  C        15.0704059126        1.7546232158       22.2848345951
  S        10.1543393342       10.2137301416       17.8665026428
  N        10.4036282812        9.7872061619       16.3008806724
  C        10.7659914592        7.7898474054       14.9674586327
  H        10.5673142521        5.7613560948       14.1379200317
  C         4.5366246740        0.6978745072       36.1556971228
  N         4.7088290958       -0.6197672501       36.2315701628
  O         5.1110564123       -2.3199122926       34.7262824873
  H         3.4542387251        0.5102361450       16.9010772328
  H         2.8621286940        1.6648692616       18.0969849108
  C         3.1277655428       -0.3057370784       18.8635768835
  H        14.6938174761        0.9624036464       22.9200711969
  H        15.5727057026        1.1717870739       21.5278142574
  C        15.9185338931        2.6833721378       23.1605859313
  C        11.3190440747        8.5011654280       13.8109199867
  S         4.2961812209        1.4377559607       37.7136917675
  C         4.7721017939       -1.3732722297       37.5519264367
  H         4.0766734535       -0.7775288772       19.3293709899
  H         2.6554685043        0.2467284239       19.7065893554
  C         2.2766839056       -1.3728576412       18.3127041223
  H        15.2933340044        3.2690678194       23.8803880105
  H        16.1848809864        3.4459183918       22.4341813911
  C        17.1134067141        2.1050309985       23.9062774240
  H        11.1562469313        9.5518495783       13.9225361950
  C        11.7393797630        8.1181078155       12.6038660678
  H         4.1411485370       -0.9764752880       38.4235290740
  H         4.4805699831       -2.4230237500       37.3517093962
  C         6.2431002425       -1.3411832943       37.9687901018
  H         1.4564175575       -0.9649567569       17.7040830057
  H         1.7291213758       -1.8873416577       19.0687509761
  C         3.2262680505       -2.3408003749       17.4989987850
  H        17.5176179411        2.6334014187       24.7622941708
  H        16.9207578030        1.0159141873       24.2161601101
  C        18.3381829881        1.9478220636       23.0348806071
  S        12.0666035489        6.5403761941       12.0763712180
  C        11.7331252579        9.1330396418       11.5214150618
  H         6.7416794690       -0.7233529484       37.2154497756
  H         6.2762852847       -0.8727847395       38.9157616113
  H         6.5712812668       -2.3570848663       38.2658603503
  H         3.3586288374       -2.0519275842       16.4642753004
  H         2.9187586916       -3.3702270646       17.5711500095
  H         4.2010638405       -2.4712796995       17.8130934877
  H        18.6394466008        2.9724434315       22.6998900771
  H        18.0587777135        1.3198791761       22.1910831312
  H        19.1069292494        1.4214195506       23.5650842577
  C        12.5529151872        7.2998365212       10.5325484280
  N        12.3219705930        8.6269295106       10.4267822574
  O        11.4781561222       10.3523827947       11.6965243016
  S        13.0715493985        6.3831291243        9.1412468383
  C        12.4879569759        9.4887706173        9.2598265394
  H        12.5760375643       10.5432634722        9.5592749846
  H        13.4315260605        9.2545226208        8.7523619567
  C        11.2748188470        9.2240383697        8.3227431329
  H        10.4204141959        9.7977245163        8.6776302431
  H        11.4843489544        9.6512463024        7.4116839852
  H        11.0027357365        8.2302840856        8.2100941521
  H        -3.6086934927       14.4895082562       16.6542126662
  C        -3.4307896209       13.4256809636       16.5921038026
  H        -4.3616836375       12.8972482113       16.8609473984
  C        -2.1565867602       13.2208628681       17.5477012676
  C        -3.1520321596       12.9795412269       15.2096430021
  C        -2.3525379682       13.8736809498       18.9968118762
  H        -2.1448790659       12.1549139466       17.6846027689
  H        -1.2330333047       13.5443259287       17.1110370577
  H        -3.1258973010       11.8973917465       15.1573308427
  H        -3.9058414155       13.3726967823       14.6227304106
  H        -2.1470736230       13.3407549343       14.8711342203
  C        -1.3270190880       13.3628288770       19.9625316470
  H        -3.3398016092       13.7120639300       19.3427597059
  H        -2.2947064062       14.9704635316       18.8572448869
  C        -1.9955823016       13.2109091534       21.3192629461
  H        -0.9755065028       12.3772661080       19.7565840903
  H        -0.3952013449       13.8952393254       19.9399690195
  C        -1.0999835283       12.5692086658       22.3581048456
  H        -2.8625960345       12.5728646625       21.2793063478
  H        -2.3924603882       14.1189852231       21.7209521484
  C         0.0230987866       13.5207396181       22.7895334194
  H        -1.8022408987       12.3937341797       23.1774514629
  H        -0.8503318468       11.6196881047       21.9161183845
  C         1.1882633419       12.8036325706       23.5393011709
  H         0.4953460127       14.0369374499       21.9168493008
  H        -0.4035589340       14.3242399877       23.5240966306
  C         1.6458182329       11.4707448035       22.8833394709
  C         0.8048349957       11.9615748811       24.7822234866
  C         2.3513442542       13.8471905719       23.8346889611
  C         1.4023307696       10.2896159405       23.6199652122
  C         2.0996833094       11.1347254910       21.5839488588
  C         0.8942059098       10.6356757025       24.8277590323
  C         0.3077488705       12.6219128136       25.9358590793
  H         2.3600022108       14.4136899117       22.8841799228
  H         2.0100765892       14.5469191535       24.5524672855
  C         3.7515847318       13.3294141547       24.2211360610
  S         1.7862144507        8.8363077432       22.7775573078
  C         2.3012857938        9.8084826044       21.4755910286
  H         2.3187396901       12.0068729511       20.9234535199
  C         0.4572785467       10.0222462615       25.9878354300
  H         0.3830760673       13.7131538298       25.7730850588
  C        -0.1043189728       12.0007755644       27.0766038540
  H         3.9919883853       12.6103806502       23.4968037173
  H         3.7705993240       12.7586266238       25.1822198776
  C         4.8425711821       14.3504160131       24.2929418067
  C         2.8257853731        9.2332994416       20.1505374660
  C        -0.0965604526       10.6685357465       27.0920547639
  H         0.4690695117        9.0168677987       26.0037446109
  C        -0.4729346050       12.3893407756       28.3463982163
  H         5.6987858922       13.9654244012       24.8185478688
  H         4.5040448960       15.2857143730       24.7326166609
  C         5.5774228413       14.5517262466       22.9214704971
  C         2.7815920014        7.8666965693       19.8158553235
  C         3.4092748456       10.1041867686       19.0863945313
  C        -0.4607470132        9.9322293209       28.3932969120
  C        -0.8215084387       11.2768082785       29.0743975068
  S        -0.6448394902       13.8739208161       29.1882255334
  H         6.3547385140       15.3287532089       23.1379548206
  H         4.9222311289       14.9129862276       22.1373128697
  C         6.2882504085       13.2417819866       22.3669530744
  N         2.6213363128        6.7879040895       20.7332824680
  C         2.9651128148        7.3802041266       18.5415270961
  C         3.6090799127        9.6501459949       17.7760269820
  H         3.5364782220       11.1900356830       19.3314248364
  C         0.7327941105        9.2049064418       29.1461663635
  C        -1.6664206014        9.0983068988       28.2493619095
  C        -1.1418211587       11.6613633930       30.3680582316
  C        -1.2295720107       13.0602968085       30.5524602585
  H         6.6978800046       12.7621753747       23.2237321335
  H         5.4775198393       12.6114110945       22.0080652996
  C         7.3980880549       13.4399420641       21.3670661910
  S         2.5233673312        5.4034597479       19.8497413632
  N         2.9063523980        5.9835586615       18.4095136954
  C         3.2595818403        8.2270042113       17.4231651132
  H         3.8143187501       10.3978835819       17.0483125012
  H         1.0461384915        8.4915390896       28.4754863731
  H         0.2510344172        8.7593415852       30.0041991053
  C         1.9124174075       10.0692273329       29.7038758463
  H        -1.4037526174        8.3144137861       27.4848730617
  H        -1.8940633631        8.5526499781       29.1948469193
  C        -2.9887310643        9.7444782884       27.8634216974
  H        -1.3322080135       10.8452114901       31.1081605059
  C        -1.4929646124       13.8181527789       31.8716169105
  H         8.0420244832       12.5554013785       21.3562213681
  H         7.9628767470       14.3395154661       21.5024703191
  C         6.8044198793       13.5792669854       19.9446858739
  C         3.3970634031        7.6257894427       16.1803820488
  H         2.1583302174       11.0533697106       29.2203812890
  H         1.5710979191       10.3763830547       30.6585521691
  C         3.1979388815        9.2266614599       30.0962155345
  H        -2.6829771296       10.4048094252       27.0699048420
  H        -3.4717968599       10.2829898312       28.7489019351
  C        -3.9776176369        8.6316189660       27.4112419609
  C        -1.4930228767       15.2175985965       32.0176904737
  C        -1.6017518366       13.0563788148       33.1640576706
  H         6.1993954437       12.7489838445       19.7052518125
  H         6.2287416986       14.5325615937       19.9463732144
  C         7.9409164032       13.5592491788       18.9013233066
  H         2.9072243925        6.6177155326       16.1097689963
  C         3.8341848443        8.0481322758       14.9908686170
  H         3.5129842030        8.7406759123       29.2166533884
  H         2.9207599453        8.5588171977       30.8618117812
  C         4.3151330800       10.1231431269       30.4943143637
  H        -3.5396131418        8.0393905714       26.5481880544
  H        -4.1217338748        7.9648672200       28.2483908590
  C        -5.4097667497        9.0955600307       27.1485168415
  N        -1.3349538407       16.0872926198       30.9533014910
  C        -1.7317265886       15.8591546895       33.2251879397
  C        -1.8974179894       13.7203705615       34.4071710519
  H        -1.4776153656       11.9811414674       33.0487734398
  H         8.6269938633       14.4023757471       18.9265941791
  H         8.6271418258       12.7119627268       18.9433469698
  H         7.5141284714       13.7404465359       17.9923902416
  S         4.3740933124        9.6557911287       14.5014627534
  C         3.8265821065        7.0736480476       13.8533388995
  H         4.7313445736       10.4776440568       29.5242108757
  H         3.9981291699       11.0642901346       30.9831003989
  C         5.4361310491        9.4348276266       31.2582451082
  H        -5.7586931512        9.7361551572       27.9279732153
  H        -6.0557592747        8.2038608406       27.0729602707
  C        -5.5774660355        9.8233971171       25.8223925534
  S        -1.3254028760       17.5680330204       31.5887080612
  N        -1.7158531628       17.1975928124       33.1248449275
  C        -1.9027268334       15.1964576365       34.4635151894
  H        -1.9942567301       13.1632811047       35.3320068138
  C         4.4719515139        8.9937486741       12.8482881466
  N         4.3577734058        7.6464047055       12.7540830935
  O         3.6288693811        5.8448459634       14.0102625973
  H         5.0515764783        8.9221265841       32.1030769820
  H         6.0878959148       10.2230988491       31.7183271570
  C         6.3400158294        8.3886647510       30.6041269955
  H        -4.7862172248       10.5404349736       25.6439004947
  H        -5.7185519140        9.0596515099       24.9816569027
  C        -6.8123200738       10.7381409435       25.8471233613
  C        -2.0871411058       15.9849155273       35.6894427047
  S         5.0705098141        9.9362941399       11.4685244083
  C         4.1860857654        7.0211682996       11.4349454528
  H         6.5080646351        8.6784281617       29.5568919956
  H         7.3872155663        8.4691989364       30.9070567079
  C         5.8488218047        6.9514990539       30.7445389290
  H        -6.5776038266       11.5620105778       25.1093413375
  H        -6.9501725652       11.2582226750       26.7977702817
  C        -8.2155061879       10.0985806361       25.5854837164
  H        -1.7363258610       16.9734340936       35.5351359731
  C        -2.5274464823       15.7234009492       36.9851326734
  H         5.0250810739        7.2911652644       10.8004317689
  H         4.2901208609        5.9362538935       11.6743595048
  C         2.7596140970        7.0100217696       10.8517922612
  H         6.1755013394        6.3506673580       29.9218436940
  H         4.7708519624        6.9515516773       30.6665905090
  C         6.2104914408        6.3631883034       32.0538446041
  H        -8.7963778001       10.5733852333       24.7896314988
  H        -8.0565650242        9.0570680875       25.2702544071
  C        -9.0776060152       10.2404635449       26.8066489017
  S        -3.1146928799       14.1903230581       37.5891977373
  C        -2.5693236319       16.8674836694       37.9131811424
  H         2.0238901567        6.6232853405       11.5025599531
  H         2.4801987535        7.9995401777       10.5901638895
  H         2.7841021641        6.4606400084        9.8732577095
  H         5.9967761822        7.1128780813       32.8330185517
  H         7.2917702852        6.0183436164       32.1313035414
  H         5.7237129181        5.4198647592       32.1671005569
  H        -8.4864244672       10.1564799153       27.7248744958
  H        -9.8490398305        9.4497899005       26.9390924963
  H        -9.6319308435       11.2073938811       26.6550695760
  C        -3.6701522156       15.1619901751       38.9756257558
  N        -3.3277491800       16.4868120390       38.9679857495
  O        -2.2175555738       18.0031820185       37.6529084390
  S        -4.3410448292       14.5019637075       40.3756034596
  C        -3.4611056227       17.4231705691       40.1136212291
  H        -3.5284776291       18.3695582027       39.6195243865
  H        -4.3910192169       17.2547650175       40.6624783930
  C        -2.1999119000       17.4061367335       40.9145084927
  H        -1.3165045127       17.6418110659       40.3472625526
  H        -2.2758347408       18.0894938940       41.7777187024
  H        -1.9510069034       16.4342632430       41.2285514220
