352
 i =    19700, time =    19700.000, E =        25.3233542323
  H        11.9913575221        7.1162534242       32.1835307002
  C        11.1866352294        6.3837259095       32.3050542658
  H        11.7041219471        5.5419389232       31.8293688964
  C         9.8920772649        6.5892491002       31.5771283462
  C        11.0933605649        6.2581730704       33.7983481139
  C        10.2084434934        6.9826305913       30.1723135709
  H         9.2277769657        5.6881166360       31.6374419296
  H         9.5062527717        7.4290674588       32.1582696107
  H        11.2412377775        7.1942226313       34.3188257413
  H        10.2491227498        5.6579460552       34.1267059082
  H        11.8928163045        5.6369036237       34.1533626403
  C        10.0877788092        5.8565309420       29.1321369658
  H        11.2244956450        7.2982302932       30.0426771276
  H         9.6304564281        7.8002555791       29.7864030564
  C        10.4372897765        6.1846832465       27.6421458410
  H        10.6998804259        4.9942062909       29.4731275913
  H         9.0900834971        5.5333386761       29.2408618140
  C         9.5564588281        5.6623804869       26.5393794533
  H        11.3346903749        5.5760240194       27.4017840443
  H        10.6793585759        7.1827663151       27.3683068644
  C         8.3816008631        6.5506547344       26.1997948251
  H        10.1380649659        5.5549154954       25.6551871609
  H         9.3357594889        4.6751585607       26.9125216328
  C         7.2423369057        5.7681165877       25.4585907577
  H         8.0087144955        7.0119890906       27.0969132167
  H         8.7077916605        7.3400110204       25.5824600618
  C         6.9711264851        4.4234224366       26.1969716816
  C         7.7554649178        5.0150266600       24.2730961862
  C         5.9582583297        6.5908753576       25.1865402871
  C         7.3168473264        3.3354313067       25.4672336744
  C         6.4019805390        4.0313387143       27.4539171429
  C         7.7838853116        3.6753996958       24.1946336815
  C         8.1149668241        5.6654879980       23.1333097168
  H         6.1410226985        7.2377479176       24.3863077452
  H         5.8466264144        7.1555293300       26.1214431765
  C         4.7292004842        5.8110135716       24.6853557000
  S         7.0146847906        1.7631798800       26.2389448617
  C         6.4288729800        2.6435587487       27.6203923979
  H         6.0461468978        4.7751399025       28.1607738134
  C         8.2149899875        3.1175535980       23.0394874401
  H         8.0028980969        6.7044185228       23.2202258375
  C         8.5765374207        5.1020168541       21.9785318845
  H         4.9494229121        5.5910936201       23.6670441831
  H         4.6550815810        4.8866461980       25.1629022534
  C         3.4402905938        6.4625580203       24.7686909285
  C         6.0335792010        1.9178278534       28.8548554442
  C         8.6168986344        3.7699038639       21.8903086814
  H         8.2486263814        2.0748077298       23.0131191607
  C         8.9724592134        5.5016597789       20.7223198885
  H         2.7103919052        5.8309461736       24.3202744545
  H         3.3090816104        7.3662703714       24.2035387099
  C         2.9204600450        6.6304506189       26.2206195515
  C         6.0538977760        0.5182404006       29.0268800055
  C         5.6693953902        2.7315958684       30.0585720093
  C         8.9194900324        3.0433210202       20.6675909717
  C         9.1533921762        4.3508745947       19.9724628432
  S         9.3503275968        6.9832360063       19.8803773420
  H         2.0465431149        7.2800118891       26.3244461603
  H         3.7460596267        7.1252172754       26.6366819572
  C         2.4730281142        5.3567047953       26.9315832004
  N         6.3259115452       -0.4345097125       28.0342615650
  C         5.6626711936       -0.0664290751       30.2591509181
  C         5.2493405634        2.1549761663       31.2474718102
  H         5.4424554892        3.7379386570       29.9520970016
  C         7.7916400403        2.2400578984       20.0932625185
  C        10.2988548984        2.2628957266       20.7083648382
  C         9.4154502015        4.7224589988       18.6802891572
  C         9.6209082566        6.0602519883       18.4646119443
  H         1.7345221012        4.9388353443       26.2381299850
  H         3.3503101859        4.7519528780       26.9295282459
  C         1.7103234100        5.6114568004       28.2697695913
  S         6.2860149798       -1.8998851198       28.7504404908
  N         5.6956298585       -1.4614859947       30.1621023158
  C         5.3044202779        0.6716913540       31.4305622694
  H         4.9451166515        2.7807332796       32.0422448035
  H         7.1745272618        1.8293466295       20.8826978222
  H         8.1958733229        1.4526788661       19.5357422371
  C         6.8335815697        2.8824921142       19.0676285408
  H        10.3758891753        1.6620669969       19.8021557512
  H        10.2200272491        1.4837407919       21.5226188630
  C        11.5914085815        3.0852493314       20.9314620508
  H         9.6219354649        3.9501142020       17.9279459664
  C        10.0599433517        6.6258059907       17.1431291460
  H         1.1448087755        4.6995835055       28.4047919109
  H         1.1123841685        6.4105483318       28.1154933204
  C         2.7683337067        5.7672857871       29.4162307141
  C         5.0949772252        0.0223347994       32.6364779012
  H         7.3360617618        3.1259075080       18.1657669819
  H         6.2897741520        3.7867664239       19.3993266491
  C         5.8342800200        1.8429602534       18.6646601712
  H        11.5502062819        3.6359113343       21.8435235365
  H        11.7287863482        3.7649500212       20.0923189640
  C        12.7603355241        2.1017052981       20.9848380206
  C        10.0970533004        8.0359080707       16.9003412064
  C        10.1791160822        5.7611186130       15.9606552426
  H         3.2763403294        4.8225085697       29.5253522924
  H         3.6293751819        6.4620581483       29.1672586132
  C         1.9897373475        6.0692024668       30.6576925420
  H         5.3570094078       -1.0318891264       32.6096073560
  C         4.8418427284        0.3957944463       33.9558957512
  H         5.3900670372        1.3912119363       19.5621013042
  H         6.2086330485        0.9728814086       18.1069930098
  C         4.6872873216        2.4436277456       17.9017806118
  H        12.6135237031        1.3614169027       21.7790172683
  H        12.7187095397        1.5207498617       20.1080863757
  C        14.1414523789        2.8079901550       20.9263548543
  N         9.7988426987        9.0936386675       17.7794953910
  C        10.5292245183        8.5250457628       15.7081539168
  C        10.5625446025        6.2836443030       14.7043236901
  H        10.1443539827        4.7192849166       16.0664307785
  H         1.3010697480        6.9352783790       30.7684674632
  H         1.4261143001        5.1880925682       30.9698676544
  H         2.8001388249        6.1642718919       31.4607519129
  S         4.2641908836        2.0129518326       34.3967857388
  C         4.7868982606       -0.5632218937       35.0479931735
  H         4.7784328700        3.4881904274       17.8969129833
  H         4.7777747730        2.2095436322       16.8237029795
  C         3.3335982626        2.0295180813       18.3828784498
  H        14.1326423150        3.6681142090       20.2773536464
  H        14.7909511348        2.0653195195       20.4825163015
  C        14.5871219166        3.2494348150       22.3720052002
  S        10.0225735028       10.5548817205       17.0652451593
  N        10.7623979875        9.9146912621       15.7222266526
  C        10.7937149176        7.7587309991       14.5661838467
  H        10.6362702935        5.6256947196       13.9219342446
  C         4.1748053732        1.3372442012       36.0565260023
  N         4.4967969132        0.0365076938       36.2147685007
  O         5.0060989033       -1.7650601744       34.8946303352
  H         2.7751338436        2.8448032021       17.9731461557
  H         3.3138850912        1.9382462990       19.4473024993
  C         2.7117280928        0.7942785620       17.7348278963
  H        15.2001122863        4.1661841207       22.4361030660
  H        13.6853407033        3.4877276375       22.8869054828
  C        15.3287538480        2.0260471698       23.0211223655
  C        11.0318549622        8.4434667322       13.3176497160
  S         3.6044432613        2.2682021036       37.4317376108
  C         4.5643523903       -0.5986511961       37.4949275335
  H         2.1397243467        1.1563799438       16.8861076156
  H         3.5753283717        0.1716997825       17.4986392416
  C         1.7258652201        0.0600644549       18.6619547285
  H        15.2654848532        1.2213356291       22.2640164395
  H        14.7797147004        1.7176314980       23.9082298480
  C        16.7295652465        2.3807313079       23.4039279566
  H        10.8455574087        9.5736323001       13.3950249657
  C        11.5106410599        8.0521081787       12.1304890356
  H         4.3261334999       -0.0171522329       38.3986590390
  H         3.9498757844       -1.5640975410       37.4375884269
  C         6.0361870154       -0.9306800615       37.7570759650
  H         0.8466461156        0.6784134212       18.8610926311
  H         2.2960381002       -0.0101986336       19.6552450908
  C         1.3474222605       -1.2317106233       18.0251887904
  H        16.7176901444        3.3522120288       23.9334279651
  H        17.3112236067        1.7093922251       24.0572910247
  C        17.6401561510        2.5596090713       22.1934806281
  S        11.9075799161        6.4112231686       11.7494362300
  C        11.6119000255        9.0211257174       11.0642358810
  H         6.1776302846       -1.7772943709       38.5103014031
  H         6.5568186721       -1.3925906832       36.9152152118
  H         6.6708997576       -0.0801613973       37.9932539803
  H         1.3102992856       -1.2599223734       16.9130255769
  H         0.3275600256       -1.4986892192       18.3307195086
  H         1.8857116583       -2.0409113310       18.5218382378
  H        18.6961538556        2.7426702734       22.4562048263
  H        17.4383764641        3.4237745556       21.6028238409
  H        17.7352563553        1.6261446747       21.6687364881
  C        12.2062013347        7.0965252393       10.1665588932
  N        11.9360268615        8.3984235557        9.9619261248
  O        11.3561134407       10.2216376933       11.1449975675
  S        12.5291188213        6.0537746201        8.7880573379
  C        12.0640896419        9.0999848751        8.7264970178
  H        12.7409102175        9.9297527075        8.9383263138
  H        12.5331210741        8.5485333492        7.9860209556
  C        10.6892569026        9.8111033731        8.2841495711
  H         9.8276314738        9.6975997876        8.9139098470
  H        10.9691996450       10.8555296984        8.0888669438
  H        10.3457910124        9.2701128418        7.4478092641
  H        -3.9698283948       14.6209903486       16.7871658850
  C        -3.4335979451       13.7124711257       16.5841883768
  H        -4.1702786995       12.9137777137       16.7206221169
  C        -2.3928219850       13.4096040180       17.6195221900
  C        -2.8452222861       13.8680896043       15.2011932177
  C        -2.9276365371       13.8553076909       18.9667411739
  H        -2.0725371955       12.3244681715       17.6480383624
  H        -1.5992927101       14.0913877414       17.4654637429
  H        -2.1582424216       14.7088719879       15.0862676592
  H        -2.2152944211       13.0298252193       15.0293016771
  H        -3.6005819524       14.1786380098       14.5022991296
  C        -2.2460663180       13.2071188481       20.1015507322
  H        -3.9535224274       13.5444574225       19.1764272012
  H        -2.8725123224       14.8845460361       19.0452282518
  C        -2.5625867904       13.7332872210       21.4646781963
  H        -2.3035955154       12.1766708469       20.0215278621
  H        -1.2145776510       13.4355865623       20.0515962137
  C        -1.4998226265       13.3047332412       22.6491066624
  H        -3.5045119383       13.3433783223       21.8418246964
  H        -2.7682047465       14.7695656267       21.3695580486
  C        -0.1866543510       14.2218723028       22.5996898367
  H        -2.0415809614       13.3625675232       23.6262586987
  H        -1.3355323059       12.2858059996       22.5069120889
  C         1.0307176177       13.5230393218       23.2125933003
  H         0.0299791510       14.5155780012       21.5728851828
  H        -0.3567297431       15.0709951456       23.1760736548
  C         1.4398166286       12.1941153140       22.5596917774
  C         0.7749659629       12.8095655468       24.5162336863
  C         2.2474236004       14.4825370234       23.1822327321
  C         1.2027204204       11.0993206198       23.3610792482
  C         1.9434345871       11.8285508399       21.2925371766
  C         0.6992433800       11.4443939632       24.6230176251
  C         0.3112996344       13.5148194706       25.6729116961
  H         2.3739076985       14.9591448990       22.2095018532
  H         2.0110387899       15.1159944828       23.9897097484
  C         3.5511492956       13.7520955937       23.4258053790
  S         1.5224883493        9.5924027740       22.5149526046
  C         1.9638190933       10.4599515761       21.0928820899
  H         2.1921496628       12.6048916032       20.6144247454
  C         0.3114798169       10.8653596688       25.7740932109
  H         0.2669864210       14.5977193733       25.6133440496
  C         0.0391651164       12.8779590464       26.8479890041
  H         3.7334434331       13.0038814635       22.6481871921
  H         3.3876347527       13.2455227355       24.4250371765
  C         4.8711833393       14.6274956809       23.4920272627
  C         2.3838053529        9.7764759231       19.7991522670
  C        -0.0154453023       11.5174236556       26.9557672504
  H         0.2189267293        9.7526195540       25.8427071677
  C        -0.3700828754       13.2761207839       28.1319488675
  H         5.7685074328       14.2219886189       24.1043482080
  H         4.6131730957       15.5680697592       24.0075876433
  C         5.4601677063       14.8418192512       22.0710758467
  C         2.3426787506        8.4003883333       19.5406547534
  C         2.8386179489       10.5666373020       18.5948677269
  C        -0.3530687258       10.8269144481       28.2633806068
  C        -0.6607155575       12.1956773433       28.9518188987
  S        -0.6297642253       14.7888411368       28.8144828395
  H         6.2266655686       15.5085305498       22.2317844308
  H         4.6305569730       15.1070403523       21.3488586855
  C         6.0351399225       13.5538612895       21.5373342913
  N         1.8978801596        7.4902516204       20.4964015565
  C         2.7792568071        7.7855530570       18.3685792986
  C         3.1969446815        9.9253387229       17.3790947489
  H         2.9064880825       11.6808939069       18.6569734920
  C         0.7853496308       10.0466237296       28.9525784668
  C        -1.6801953135       10.0335009873       28.0581520432
  C        -1.0204180455       12.7007795180       30.2439728916
  C        -1.0947710863       14.0780049982       30.3273738067
  H         6.8451802264       13.0832934465       22.0513940642
  H         5.3158994438       12.6885901659       21.5044111520
  C         6.5125441382       13.7276673668       20.1908109688
  S         2.1609679608        6.0124046582       20.0061391549
  N         2.8325345070        6.4025055866       18.5455916936
  C         3.1742290501        8.4533047022       17.1757427783
  H         3.5239605808       10.5229808545       16.5604625825
  H         1.0127802255        9.1198966482       28.3189772378
  H         0.5926873999        9.7459320026       29.9462237858
  C         2.1750172997       10.8335135564       28.9978117375
  H        -1.4703122832        9.1778193649       27.4412839857
  H        -2.1533193305        9.6957568286       28.9710361411
  C        -2.8884992161       10.7798014776       27.3982261634
  H        -1.1726737013       11.9207779266       30.9882254368
  C        -1.6435318988       14.7451690762       31.5707028582
  H         7.3760073793       13.0628649558       20.0431121611
  H         6.8423513930       14.7621987846       19.9344443476
  C         5.4486476629       13.3690067722       19.1108897882
  C         3.5125997206        7.6876200636       16.0195295878
  H         2.6148235783       10.9097114772       27.9965995828
  H         1.9146843836       11.7960398301       29.4041447079
  C         3.0889798849       10.0808857705       29.9884727923
  H        -2.5055527515       11.2554197108       26.4520892192
  H        -3.2556868773       11.5750058892       28.0044178596
  C        -4.1028149264        9.8428285834       27.1442171230
  C        -1.6720908795       16.1668680167       31.8635995153
  C        -2.0885586820       13.9104303664       32.7095245697
  H         5.1269099598       12.2768053631       19.0919687418
  H         4.5062510462       13.8124800680       19.2468865218
  C         6.0013077682       13.5032468703       17.7384637221
  H         3.6797790394        6.6389218062       16.1877609647
  C         3.8218294154        8.0137730002       14.7465803369
  H         3.2897511030        9.1334406155       29.3877906472
  H         2.7270358343        9.8067165973       30.9709892745
  C         4.3870715515       10.7773940549       30.0453153942
  H        -3.8776093747        9.0739604203       26.4817790705
  H        -4.2196026409        9.3094725897       28.0307891688
  C        -5.3749925608       10.6029988336       26.7862411982
  N        -1.2456437776       17.1278396144       30.9390232176
  C        -1.9638330188       16.7019402319       33.0719268450
  C        -2.4236220295       14.4245549296       33.9527785821
  H        -2.0781741509       12.8062946016       32.5811722025
  H         6.9328049215       12.9741831490       17.6632310322
  H         5.3086592433       13.0810116762       17.0046856329
  H         6.1807416713       14.4851245070       17.3425209259
  S         3.8347314702        9.5887821866       14.1108252080
  C         4.0131105836        6.9146751859       13.8233184775
  H         4.5874424542       11.3875755062       29.1358799690
  H         4.3729087975       11.4887618915       30.9109354480
  C         5.4109208690        9.7143504267       30.3545104912
  H        -5.3961774766       11.1890143815       25.8723207921
  H        -5.4297366313       11.2854362313       27.5896223409
  C        -6.6347634521        9.7728269564       26.9226562906
  S        -1.3439482899       18.5916727144       31.6151894931
  N        -1.9269078619       18.0820668052       33.0392958881
  C        -2.3825547119       15.9052117042       34.1880555479
  H        -2.8822594019       13.7689513548       34.6272983460
  C         4.2112821661        8.7389700316       12.5806988112
  N         4.2631477881        7.4055074613       12.6043566330
  O         3.9229455208        5.7093503454       14.1475465060
  H         6.2171750608       10.1848968008       30.8478130057
  H         5.8373539637        9.2340745443       29.3955519713
  C         5.0357957437        8.6307557475       31.3259601527
  H        -6.6895288906        9.2646027558       26.0241789665
  H        -6.6644273699        9.1492156609       27.8121204613
  C        -7.9262883532       10.7379572899       26.9714162714
  C        -2.6712191732       16.5788780880       35.4394594383
  S         4.5961451938        9.5389409655       10.9856351961
  C         4.2651996646        6.4728088308       11.3833773716
  H         4.6253277830        9.0686876760       32.2157303253
  H         4.4319404576        7.8395270420       30.8829623523
  C         6.2529022172        7.8499686250       31.8498461025
  H        -7.6770016029       11.7673196477       26.6430870489
  H        -8.0684982420       10.8855577940       28.0269369798
  C        -9.1702033142       10.2470224318       26.2589795100
  H        -2.6065650782       17.6027502075       35.3641159055
  C        -3.0996353702       16.1284700168       36.6623124767
  H         4.9835070242        6.7686186062       10.6971026256
  H         4.5532463986        5.4886910534       11.6511430362
  C         2.8966697469        6.5387989190       10.7199961396
  H         6.6011552194        8.3274972960       32.7326754333
  H         6.9743255089        7.9370789647       31.0416709921
  C         5.7530734303        6.3712040724       32.1341964779
  H        -9.4990145342        9.3099736315       26.6525777277
  H       -10.0218690026       10.9338084002       26.4604862003
  C        -8.9031966478       10.0952871372       24.7259606607
  S        -3.3210963090       14.4586692078       37.1180374938
  C        -3.3219359617       17.0536813119       37.7490030432
  H         2.4242418305        5.5700254247       10.5123085767
  H         2.2111111127        7.2009397251       11.2531037898
  H         3.1420084925        7.0166453471        9.7573405250
  H         6.5419330539        5.7973212470       32.6676294850
  H         5.4182424190        5.8398526438       31.2351530771
  H         4.8900020458        6.5166080706       32.8011301280
  H        -8.3391781638        9.1006494124       24.5434355730
  H        -8.2450406639       10.8556153347       24.3050955944
  H        -9.8756546135       10.1012248146       24.1546772048
  C        -3.8864241632       15.0983181848       38.6926527003
  N        -3.8409054865       16.4482661814       38.7927817285
  O        -3.3034959083       18.3471150535       37.7199927885
  S        -4.6614900436       14.1815197513       39.9596902499
  C        -4.0899621861       17.2187130853       40.0136555819
  H        -4.4106808804       18.2525770371       39.8862896435
  H        -4.9742207019       16.9075732018       40.4708519783
  C        -2.8135985187       17.2591364356       40.9097940330
  H        -2.0273530398       17.8001193968       40.5243960000
  H        -3.0432630188       17.6223516889       41.9185810969
  H        -2.4459589336       16.2361192088       41.0311027637
