352
 i =    37200, time =    37200.000, E =        25.0045097651
  H        10.9059041011        8.0305242209       32.4685388854
  C        11.2751737256        7.0334878531       32.6409973267
  H        12.3851598987        7.0093430311       32.5096504491
  C        10.5941435440        6.1374961610       31.6324331731
  C        10.9793811169        6.5127596146       34.0621923991
  C        10.7708714921        6.5997522246       30.1655436988
  H        11.0007561099        5.1814633356       31.6915081977
  H         9.5291308666        6.0252267633       31.9118190711
  H         9.9155273797        6.4530386003       34.1812535067
  H        11.3603999026        5.5382928201       34.2081133951
  H        11.4815819853        7.1340757907       34.8089321706
  C        10.1529848787        5.6496369675       29.2222144023
  H        11.8071284045        6.9256661141       30.0321508033
  H        10.1694928022        7.5046665717       30.0348470631
  C        10.5440058400        5.9790045254       27.7881232922
  H        10.5274104433        4.5700034893       29.3820618039
  H         9.1020245057        5.5875233342       29.3344846021
  C         9.5476620973        5.3214267190       26.7953678265
  H        11.5689668624        5.5320040236       27.6890369666
  H        10.5805551325        7.0394553299       27.6202492733
  C         8.4186177617        6.3214642463       26.4881346573
  H         9.9855864743        4.8169238536       25.9180469784
  H         9.1506580480        4.4157084867       27.3411997448
  C         7.2734775783        5.5958292288       25.7667463961
  H         8.1774123735        6.9321478461       27.3662552035
  H         8.7727581157        6.9965109840       25.7083671397
  C         6.9001528316        4.2957573373       26.4960614913
  C         7.7057685585        4.8762572544       24.5363179201
  C         5.9995636733        6.4642702282       25.5937480170
  C         7.2333331755        3.2017254295       25.7094198123
  C         6.5801739285        3.8951091875       27.7876387330
  C         7.6141079271        3.5472908501       24.4079947422
  C         8.1282496921        5.5504978399       23.3591739014
  H         6.2093012397        7.3851660823       25.1279091138
  H         5.7479460975        6.7552257216       26.5480957114
  C         4.8030827782        5.6515041702       25.0076693386
  S         6.7580852848        1.7525648091       26.4197672821
  C         6.3517088043        2.5144386808       27.8629498473
  H         6.4690623268        4.6490484929       28.6150255157
  C         8.0082154012        2.9584659052       23.2447155686
  H         8.1000390246        6.6218931464       23.3277388388
  C         8.4726578499        4.9466859685       22.1477698264
  H         5.0641292853        5.2786824383       24.0792640435
  H         4.5188207542        4.7888084079       25.6011882960
  C         3.4850445069        6.4874926470       24.9507750735
  C         5.9595574180        1.7903769707       29.1536719941
  C         8.4517908097        3.5853219430       22.0373539682
  H         7.9247588625        1.8457804956       23.2762058573
  C         8.9520419431        5.3058139294       20.8973522540
  H         2.8637786346        5.9750648445       24.2303675120
  H         3.6799256877        7.5182506762       24.5866763865
  C         2.9890563024        6.6923676468       26.3330320228
  C         5.8509380339        0.4174536430       29.3425010346
  C         5.4928243682        2.6077547348       30.2964231859
  C         8.6467334276        2.8684457552       20.7765867630
  C         9.0151867542        4.1953784960       20.0407117714
  S         9.2629700674        6.7622727781       20.0827062834
  H         2.0912974369        7.3150007902       26.2930580454
  H         3.6710643042        7.3289481785       26.8693688747
  C         2.6129966085        5.3468905572       27.0662793521
  N         6.1588525775       -0.5515880746       28.3270596282
  C         5.4894391080       -0.1639409240       30.5582727494
  C         5.0839834306        1.9590844262       31.4673890459
  H         5.4127673382        3.6872365624       30.2962490290
  C         7.3121086661        2.2555626551       20.3044241025
  C         9.8567382622        1.9118296666       20.7974595638
  C         9.4170765287        4.5068058748       18.7443597669
  C         9.5778815103        5.8748866360       18.5931508140
  H         2.5951326380        4.5530658600       26.4165909230
  H         3.4760576145        5.0841248099       27.6187312262
  C         1.2961879344        5.3579745278       27.8330438986
  S         6.0871244124       -1.9680324979       28.9532971146
  N         5.6370068481       -1.5687293329       30.5340443302
  C         5.0767107456        0.5017911752       31.6725592688
  H         4.5496744060        2.6295822236       32.1415769156
  H         6.9092358876        1.6576849105       21.1071375237
  H         7.4510620395        1.5673659726       19.4557314462
  C         6.1483466302        3.2112085477       19.8741164022
  H         9.8084642435        1.3401775245       19.8995415600
  H         9.9026894439        1.1492627401       21.6032849779
  C        11.2751091167        2.5035368051       20.8218560267
  H         9.4496714051        3.6677238418       18.0550905063
  C         9.9327836395        6.5556114220       17.2907044558
  H         0.9404523018        4.3932631705       28.0114853756
  H         0.5630289818        5.8538751027       27.1771193041
  C         1.5456521765        6.0686732522       29.1764464902
  C         4.8440762471       -0.2317434539       32.8631028635
  H         6.5100837732        3.7272938965       19.0310686877
  H         6.0158593172        3.9898289295       20.6458975393
  C         4.7192832227        2.6024320208       19.5910162483
  H        11.3490226241        3.2834882059       21.5702228210
  H        11.5709973659        2.9720456641       19.8426794621
  C        12.3210182273        1.4125897509       20.9294615338
  C        10.0421882337        7.9705177010       17.0045048379
  C        10.2669650399        5.7188657208       16.1432897071
  H         2.3291675526        6.7755633759       29.0940281025
  H         0.5904474585        6.5549187830       29.4354282410
  C         1.8058389101        5.1087124170       30.2886271540
  H         4.9611252779       -1.3021225832       32.8555352021
  C         4.6662198393        0.1694292862       34.1306829912
  H         4.0174242063        3.2411595245       20.0726514520
  H         4.7078079180        1.5514579647       20.0505783141
  C         4.3462628359        2.4484353614       18.1097267772
  H        12.2768961531        1.0113021001       21.9316972029
  H        12.0014587397        0.5754521167       20.3294565958
  C        13.7522557439        1.9838442233       20.6737225676
  N         9.7454501494        9.0362736705       17.8961710182
  C        10.3181913878        8.5265176959       15.7858569715
  C        10.5423146882        6.2895685254       14.9103372221
  H        10.2228264142        4.6759602322       16.1257777914
  H         0.9581367934        4.4465091812       30.4215434247
  H         2.7351739190        4.5091916953       30.1416028714
  H         2.0405459524        5.6391668546       31.1754189090
  S         4.3022605276        1.7608889364       34.7208011255
  C         4.6744169668       -0.9000934852       35.2407947691
  H         4.2216245217        3.4176996208       17.6488763109
  H         5.1874245661        1.9589908848       17.6537165613
  C         3.0727606327        1.6034709035       17.9534542664
  H        13.8189130350        2.5949783554       19.7912861453
  H        14.2560791365        1.0994459850       20.3499947805
  C        14.2468687736        2.6344573110       21.9481257232
  S         9.8483724527       10.4919762634       17.1974510858
  N        10.3560605438        9.9365679459       15.7475888250
  C        10.5920102074        7.7734527908       14.6396943253
  H        10.6732780665        5.6722352511       14.0660789367
  C         4.2671487995        1.0069188882       36.3795680550
  N         4.4233559653       -0.3605345742       36.4328020894
  O         4.7643101586       -2.1067344415       34.9944694154
  H         2.3638814577        1.9763577179       17.2043949911
  H         2.5438810965        1.6225736556       18.9354707818
  C         3.3512047907        0.1319896595       17.5557630923
  H        14.9674907142        3.3538791004       21.5557214830
  H        13.4484541166        3.2404880652       22.4412222287
  C        14.8646862802        1.5995626918       22.8794995777
  C        10.7866001931        8.3640911108       13.3720406875
  S         3.9301816680        1.9930034786       37.8153726695
  C         4.6280951254       -1.1081545621       37.6669687273
  H         3.7722330061        0.0424242673       16.6211923511
  H         3.9385668374       -0.3958101348       18.3416181621
  C         2.0319940073       -0.5887398073       17.3575033441
  H        14.9184323358        0.6324232023       22.3921519250
  H        14.1018252794        1.4733278338       23.6713835407
  C        16.2299536673        1.9769236452       23.5463589235
  H        10.4530743927        9.3916464501       13.3562840792
  C        11.2887319334        7.9470264444       12.1828054312
  H         4.1825404541       -0.6176079869       38.4910337920
  H         4.2405516226       -2.1336227895       37.5579853726
  C         6.1024274209       -1.0676732081       38.0171969145
  H         1.7457406570       -0.5862986410       16.3459345741
  H         1.2543447388        0.0914897474       17.7399461657
  C         2.0484675737       -2.0217505288       17.8220600309
  H        16.1849910854        2.9330282277       24.1216932578
  H        16.5903905833        1.2724518472       24.3172172036
  C        17.3160241480        1.9574428909       22.5066828376
  S        11.9895512664        6.4085858228       11.7873208049
  C        11.4144442063        8.9995681051       11.0647536226
  H         6.2877999686        0.0181242919       37.9867980458
  H         6.1880902347       -1.4985195501       39.0440552034
  H         6.8007326002       -1.6060388353       37.3289577242
  H         1.1300514743       -2.2619887791       18.3526988543
  H         2.8736712116       -1.9866965354       18.5364840380
  H         2.1651688530       -2.7355747859       17.0198800253
  H        18.3554127733        2.0727297739       22.9110305514
  H        17.2570577233        2.7203564188       21.6829241686
  H        17.2274252186        1.0103105854       22.0646510887
  C        12.1796565707        7.1084071799       10.1408818836
  N        12.0099046977        8.4707593300       10.0259162889
  O        10.9554378608       10.0981266161       11.1017244157
  S        12.6630545266        6.1021316363        8.7509322493
  C        12.0398597545        9.1303474797        8.7244741660
  H        12.5334334621       10.1497639985        8.7022745006
  H        12.7696595026        8.5587470081        8.1495070293
  C        10.6782573523        8.9887708795        8.0803890174
  H        10.8072168559        9.3210196568        7.0425684171
  H        10.2639305232        8.0073218043        8.1231727912
  H        10.0353088870        9.5776569609        8.6870384734
  H        -3.5746438513       15.7288792908       16.3077178694
  C        -3.4336228158       14.6841489745       16.5366895678
  H        -4.4086110870       14.3717512474       16.8689371683
  C        -2.3327452185       14.5882332948       17.5638009135
  C        -3.1694849332       13.9808074573       15.2079660858
  C        -2.6264173861       13.8193198939       18.8668656916
  H        -1.3641137839       14.4153955290       17.1505477511
  H        -2.3484431271       15.6382213843       17.8917810958
  H        -4.1206144574       13.9031384156       14.7194297944
  H        -2.6457695513       14.6848636401       14.5483585302
  H        -2.6225965689       13.0964219781       15.4086868485
  C        -1.7559185198       14.1605336732       20.0306727640
  H        -2.5494559756       12.7895918718       18.6157202596
  H        -3.6831563852       13.8718924232       19.2064746080
  C        -2.3868988392       13.7868892815       21.3732691597
  H        -0.8208337498       13.6282386485       19.9304200444
  H        -1.5493303703       15.1871453152       19.9448244820
  C        -1.3905178405       13.1099655255       22.2588259703
  H        -3.2020769984       13.1132320248       21.3033150049
  H        -2.6842197119       14.5962475204       21.9507954109
  C        -0.2830351302       14.0102421465       22.7813303026
  H        -2.0991549264       12.7633605820       23.0883894199
  H        -1.0478045353       12.1552734951       21.6896334570
  C         0.9950388610       13.2758838458       23.2910354780
  H         0.0225608687       14.6037641108       21.9751183745
  H        -0.5865065174       14.7359668859       23.4887611020
  C         1.2618780723       11.9461303275       22.6632707946
  C         0.5831945410       12.5953179869       24.5852292596
  C         2.2993485715       14.0714617318       23.2855748360
  C         1.0604339243       10.8773511868       23.5164461981
  C         1.8146016455       11.5431109557       21.4097130948
  C         0.5603929957       11.2283030281       24.7072261318
  C         0.1591059038       13.3302063796       25.7422742596
  H         2.4208011507       14.4065084226       22.2762850504
  H         2.2237632032       14.9838301913       23.9268965118
  C         3.5357613004       13.3962894349       23.7634491925
  S         1.4171305153        9.3785277052       22.7942057346
  C         1.8715543709       10.1477192883       21.3425919652
  H         2.2273961520       12.2394342775       20.7007156945
  C         0.1620252498       10.6424634424       25.8856780864
  H         0.2323703975       14.4122794653       25.6355573949
  C        -0.1580517196       12.6903838227       26.9417894307
  H         3.7650236167       12.5024237982       23.1421173169
  H         3.2984011164       13.0691340224       24.8011508866
  C         4.6986041781       14.3625870598       24.0744281053
  C         2.4038987851        9.4658670036       20.1086425635
  C        -0.2147247570       11.3092189134       27.0129290883
  H         0.1529655754        9.6046724108       25.9220792324
  C        -0.6685189526       13.0274205080       28.1425537193
  H         5.4062734669       13.9496094257       24.7927402320
  H         4.3174338470       15.2166290856       24.6625249983
  C         5.5330140653       14.7459339461       22.8957904891
  C         2.2812720989        8.0295696975       19.8732682189
  C         2.9991536816       10.2452893711       19.0108074030
  C        -0.6182189153       10.5457783091       28.1697179957
  C        -0.8168606650       11.9307719430       28.9465916393
  S        -0.8559388861       14.5113177740       28.9622046013
  H         6.3759543449       15.3653057559       23.2101790942
  H         4.8709489200       15.2471513218       22.1960248571
  C         6.0063092999       13.5038072371       22.0570024407
  N         1.7973128366        7.0730401519       20.7872770353
  C         2.6054946019        7.5093239983       18.6534566650
  C         3.2785283513        9.7405145942       17.7519070068
  H         3.1897221926       11.3348584841       19.1677582144
  C         0.4478622991        9.6326603480       28.8705407581
  C        -1.8923522771        9.6974440430       28.0465648232
  C        -1.1724178022       12.3030143803       30.2588501864
  C        -1.2376752932       13.6492270645       30.3811267720
  H         6.1115122776       12.5761456131       22.6404806968
  H         5.1790766798       13.3422482140       21.4465195440
  C         7.2652361713       13.8183497894       21.2377631929
  S         2.0446657796        5.6338232106       20.1171080474
  N         2.4517370990        6.0930663835       18.6002629075
  C         2.9992418308        8.2703449076       17.5126616144
  H         3.7539446429       10.3420975411       16.9507981542
  H         0.5877184636        8.8525734966       28.1234541161
  H        -0.0020165686        9.1615093886       29.7364044319
  C         1.6675180710       10.4329154408       29.2920200835
  H        -1.6792338400        8.8231451407       27.4197925001
  H        -2.1737709374        9.2897592259       29.0247353845
  C        -3.0625541351       10.5512212541       27.4764727513
  H        -1.3012121399       11.5229263904       31.0202545077
  C        -1.5507928956       14.3249093218       31.6881235906
  H         7.7588478881       12.7810144679       21.0195428804
  H         7.9517321721       14.4660962224       21.8328405444
  C         7.0159353446       14.6607390389       19.9634177822
  C         3.2500260610        7.6479187762       16.2491616902
  H         2.0391162394       11.2529724181       28.5929178846
  H         1.4361618692       11.0569413503       30.2233014033
  C         2.8597271213        9.4897874806       29.6882843269
  H        -2.7117132553       11.0246733639       26.5217979268
  H        -3.2664968140       11.3434439201       28.2548773924
  C        -4.2383189973        9.6622822973       27.1309506545
  C        -1.7204555112       15.6965488430       31.8721250044
  C        -1.7491522798       13.5013997699       32.9174840023
  H         6.0801430403       15.2459659253       20.2597417154
  H         7.8073130809       15.4511794323       19.7893992776
  C         6.8928375403       13.8844964294       18.6954743776
  H         3.0778000027        6.6399343822       16.3119430378
  C         3.4669296326        8.0107291723       14.9785051786
  H         3.1941572890        8.9633281130       28.8655552529
  H         2.3879576818        8.7906748784       30.3551238854
  C         3.9732510837       10.1980873605       30.3933480139
  H        -3.8036875243        8.6719566893       26.8723048710
  H        -4.7390890103        9.6339449038       28.1157807887
  C        -5.2544144454       10.0965021827       26.0646939347
  N        -1.7314295383       16.6115512667       30.7638503289
  C        -1.9854291654       16.2885331209       33.0819524808
  C        -2.0337581637       14.0588756014       34.1798455665
  H        -1.5890329345       12.4328380764       32.8253776728
  H         7.6504855015       13.0876362083       18.5194746055
  H         5.8915138150       13.4622580091       18.4748871800
  H         6.9473332881       14.5642078226       17.9197003882
  S         3.7271831653        9.6233200063       14.4261724093
  C         3.5204439187        6.9732704405       13.8619529902
  H         4.2738958163       11.0263654671       29.7246025756
  H         3.7312879538       10.5710270521       31.3920184017
  C         5.2185032697        9.2878298907       30.4570326163
  H        -5.2876144895        9.2519326649       25.3666408965
  H        -4.9093088942       10.9756185678       25.5185290800
  C        -6.5754037497       10.5214763034       26.7227917100
  S        -1.7999464522       18.0941042194       31.3909519799
  N        -2.0285318984       17.6329147036       32.9487300813
  C        -2.1459711123       15.5571172057       34.2658813848
  H        -2.1009338932       13.3904145670       35.0352915927
  C         4.0173719487        8.9637205551       12.7998088442
  N         3.8832458693        7.6069498564       12.6844803263
  O         3.2828348018        5.7955291542       14.0027753840
  H         5.9698991894        9.8690214514       30.9341494592
  H         5.5389503468        8.9808441706       29.4888040078
  C         5.1539239382        8.0557986708       31.3340245989
  H        -7.0319737802        9.6522909277       27.2998412726
  H        -6.4115852877       11.3527965265       27.4068343808
  C        -7.5188816168       10.9926813928       25.6870836322
  C        -2.4173075250       16.2555161853       35.4789943393
  S         4.3956985864        9.7955949659       11.2920846645
  C         3.9959512596        6.7898824815       11.4725971742
  H         5.4357618700        8.3206146106       32.3852889048
  H         4.0813511437        7.7071710168       31.4072886957
  C         6.0184094282        6.9498470010       30.8351943064
  H        -7.1174481148       11.3779083512       24.7432945717
  H        -7.8290179246       11.9975254501       26.1020498813
  C        -8.8249470055       10.1652212655       25.4838730943
  H        -2.0796148072       17.3297257294       35.4003148094
  C        -2.9158099247       15.9376644872       36.6818632244
  H         4.5116861818        7.2388587038       10.6361317393
  H         4.5953225403        5.8681564642       11.6453566745
  C         2.5936191108        6.3727017492       11.0349827287
  H         6.9361426811        7.2583335083       30.2719627688
  H         5.5210455470        6.4072953900       30.0809596738
  C         6.3618328765        6.1099232994       32.0471083535
  H        -9.4549911409       10.6484766384       24.7974191491
  H        -8.6754024982        9.1639113447       24.9451921868
  C        -9.7312826291        9.9461782462       26.7143501056
  S        -3.4162236683       14.4343456830       37.1408067839
  C        -3.0721922075       17.0239032908       37.7021710434
  H         2.4154611405        6.2106039156        9.9543671478
  H         2.2787838661        5.4189835326       11.5070710191
  H         1.8910063777        7.2356697481       11.2169159045
  H         6.7249725354        5.1087112166       31.8453472147
  H         5.5317710474        6.0262766046       32.7362841452
  H         7.1252203979        6.8204412837       32.4942169478
  H        -9.7562705441       10.8911210401       27.2660925580
  H        -9.3495754511        9.1831678017       27.4736763799
  H       -10.7531188388        9.6372003165       26.4238686574
  C        -3.5577671778       15.1419648391       38.7386877773
  N        -3.4936790265       16.4316831790       38.8238967820
  O        -2.7940444496       18.2129518207       37.5066122097
  S        -4.2647376991       14.2378069867       40.0542515222
  C        -3.7234312542       17.1672815667       40.1090853874
  H        -3.9483053216       18.1751209816       39.8872172839
  H        -4.6436367272       16.9109239310       40.6505508306
  C        -2.4662233781       17.0757512340       40.8687763953
  H        -1.7968785947       17.9959571323       40.7974031227
  H        -2.6152506763       16.9200149042       41.9368699006
  H        -1.8216167947       16.2813054978       40.5303354746
