352
 i =     2600, time =     2600.000, E =        42.4332084139
  H        12.1175825516        6.6440542132       32.3231424671
  C        11.8797843778        5.6363443356       32.3761403954
  H        12.7767796526        5.0075829611       32.2769287772
  C        10.7679293892        5.4158894484       31.3139023415
  C        11.3379951054        5.4295953533       33.7773248199
  C        11.1283827784        5.8245601730       29.9607945448
  H        10.4794109283        4.3861922980       31.1953364394
  H         9.7461403282        5.8645242847       31.5010281596
  H        10.8499594586        4.5048798627       33.8764218969
  H        12.1235621468        5.5276328831       34.4712513844
  H        10.4045715896        6.0016549636       33.9542665538
  C        10.3780166414        4.9670704590       28.8479026515
  H        12.2209571164        5.7085640256       29.8694253951
  H        10.8913063971        6.8859325859       29.8907412455
  C        10.8312392208        5.2707156135       27.3642018083
  H        10.4364554902        3.8674727647       28.9559688943
  H         9.3377449886        5.1997193704       28.8130020582
  C         9.9191739614        4.8308428836       26.2490873899
  H        11.7342759202        4.7566364777       27.4260921522
  H        11.0847418344        6.2977466141       27.0496896403
  C         8.6978796078        5.6098363920       25.8662468287
  H        10.3923892270        4.4856106021       25.3502211063
  H         9.6196639329        3.7486052333       26.5699342913
  C         7.4280888244        4.9342886325       25.3097223955
  H         8.4587816617        6.1647056421       26.7250589807
  H         9.0016526560        6.3277510302       25.2550279438
  C         7.1742002806        3.5689868172       26.0752460409
  C         7.7220935728        4.2137040266       24.0664340568
  C         6.1697494512        5.8228241080       25.2578120518
  C         7.3261516046        2.4666566735       25.2501240743
  C         6.6336392430        3.2346156640       27.3475018733
  C         7.7612498244        2.8816397900       23.9319234023
  C         8.1757787645        4.9380103902       22.9559903582
  H         6.2696439454        6.7081872850       24.6986111771
  H         5.9154380411        6.2262884292       26.2269794082
  C         4.9443682545        5.1602379601       24.4937489002
  S         7.0894112119        1.0432884272       26.1449011353
  C         6.5854087186        1.9623869126       27.5675368189
  H         6.3921759393        4.0418647694       28.0274346734
  C         8.1247076191        2.3359850828       22.7783947061
  H         8.0876075670        6.0657113075       23.0121659027
  C         8.4513319613        4.3492164309       21.6827737928
  H         5.3376744423        4.9103334726       23.5123111180
  H         4.5350474285        4.2902998442       25.0138346911
  C         3.6754435623        6.0563674755       24.2089240892
  C         6.1453598524        1.2669428150       28.8313010727
  C         8.5363020184        3.0105646940       21.5766963409
  H         8.2671249605        1.2401861058       22.5964995832
  C         8.9248260634        4.7840895064       20.4841838469
  H         2.8589949165        5.6218200410       23.5279323778
  H         4.0287258106        6.9835420755       23.5872905275
  C         2.9640447834        6.3824710331       25.5098776531
  C         6.0881032233       -0.1424047828       29.0654455885
  C         5.6831466103        2.0879264488       29.9689831825
  C         8.8747396475        2.3443994313       20.2267488439
  C         9.0532860805        3.7121028784       19.6090946467
  S         9.3181600804        6.3300810256       19.7738129696
  H         2.3310642974        7.2155753483       25.2032500776
  H         3.7277524751        6.5041038096       26.2208737381
  C         1.8967975073        5.3232881141       26.0628417885
  N         6.3907285847       -1.1034660079       28.0650320837
  C         5.6748619047       -0.7257120231       30.2408665129
  C         5.3960959690        1.5181349498       31.2120010787
  H         5.8712562065        3.1275452401       29.9518737127
  C         7.7309630032        1.5204097318       19.6174012999
  C        10.2899162632        1.5688777973       20.3568827853
  C         9.4551409223        4.1811278614       18.4021914902
  C         9.6381498703        5.5423637022       18.3326697815
  H         1.0365192493        5.6442677815       25.3984934400
  H         2.2928677000        4.3325680165       25.7399668462
  C         1.6115146872        5.2822767051       27.5849911356
  S         6.3225211951       -2.5767258518       28.7792915692
  N         5.7042004069       -2.0873511052       30.2167709476
  C         5.3655839046        0.0460465002       31.4161712125
  H         4.9993764455        2.1670688810       32.0035526061
  H         7.5881595261        0.6525075634       20.2715367445
  H         8.0828418131        1.2288471517       18.6473043153
  C         6.3599811461        2.1818473172       19.3993509630
  H        10.3304378316        1.1241826632       19.3789303994
  H        10.2378939224        0.6913901932       20.9169545634
  C        11.4724724234        2.4007577818       20.8209448392
  H         9.7112617231        3.5288933308       17.5924245245
  C         9.9095323049        6.2669607182       17.0851257164
  H         0.7934345026        4.6598296981       27.9224733692
  H         1.1350754749        6.2263513217       27.8129315422
  C         2.8484984004        4.9975859047       28.3740753456
  C         5.0271920539       -0.7723814103       32.5604027116
  H         6.4492688009        3.1566997270       18.8093433551
  H         5.9407534790        2.5986204138       20.2809798860
  C         5.3114565812        1.2785228177       18.8765816302
  H        11.1812293147        3.0005137096       21.6162550862
  H        11.9211218641        3.0222216361       20.0355343631
  C        12.5732818770        1.5179855889       21.4034644220
  C         9.9366769076        7.6448124487       16.8729271373
  C        10.0970558475        5.4562680427       15.7957505779
  H         2.9615842044        3.9018375744       28.2496145144
  H         3.8006008732        5.5078864043       28.1818242181
  C         2.5547346650        5.3677770147       29.8318899171
  H         5.3142422595       -1.7717480310       32.5621308778
  C         4.7838961497       -0.3363264335       33.8363938218
  H         5.1115166985        0.5081108893       19.6465780893
  H         5.6716549327        0.6040156752       17.9958122956
  C         4.1821633153        2.1074211032       18.2455319948
  H        12.1157122995        0.9882329981       22.2587720801
  H        12.9114039064        0.7616281657       20.7151518104
  C        13.7644958647        2.4103930294       21.8364195818
  N         9.6855948957        8.5746979876       17.9044522728
  C        10.1335900605        8.2041604929       15.6347103519
  C        10.2844288546        6.0250900719       14.5460551031
  H        10.0635489624        4.3867673698       15.8547475121
  H         3.3406924781        5.3330453083       30.4076481860
  H         2.3054166125        6.5001912695       29.9466684776
  H         1.8723211677        4.7164651370       30.3994053064
  S         4.4712664267        1.2907614941       34.3691003761
  C         4.8303464790       -1.4074962090       34.8428330166
  H         4.0062292067        3.0949608029       18.7489258692
  H         4.5443026870        2.3219516496       17.2255402817
  C         2.8960197473        1.3252059352       17.9621167387
  H        13.5387355202        3.3379129012       22.3745275208
  H        14.0877454418        2.7341287461       20.8798652663
  C        14.9057389477        1.5180487323       22.4938138115
  S         9.8259716626       10.0541040745       17.1781289147
  N        10.1779393494        9.6304633362       15.7065605097
  C        10.3183108520        7.5142001837       14.4468757255
  H        10.1475319767        5.4477768749       13.5828570428
  C         4.1990503270        0.4461912586       35.9366329542
  N         4.4430658999       -0.8995738768       36.0104687153
  O         4.8788316937       -2.6176278046       34.6630150025
  H         2.0786843197        2.0534281553       17.7140039627
  H         2.7485045085        0.8714955431       18.8574837030
  C         2.9584015818        0.2083059388       16.8908798899
  H        14.4249821839        0.7899060687       23.1972011047
  H        15.5241083543        0.9357459045       21.8335597373
  C        15.6901140039        2.3193960319       23.5458329921
  C        10.7533596007        8.2187980362       13.2505638185
  S         3.8575683073        1.2359392119       37.4515345934
  C         4.5291498395       -1.7420620837       37.2493282422
  H         2.2647238524        0.5315332234       16.0499365048
  H         4.0446513887        0.1724449858       16.5735675466
  C         2.5049274154       -1.1333006823       17.5616841436
  H        15.6746917981        1.9180705618       24.5878574351
  H        15.4338583723        3.4193199352       23.6341955410
  C        17.1782158557        2.3452470796       23.2607335503
  H        10.4072996658        9.2496002244       13.0613606138
  C        11.3976414860        7.6992607716       12.1208405586
  H         3.6989382110       -1.3842218344       37.8864549815
  H         4.2377055550       -2.7833043510       37.3821714100
  C         5.9045750823       -1.5845688387       37.9417695770
  H         1.9120262823       -1.0173531703       18.4831919147
  H         3.3646483762       -1.5795678093       17.8167449082
  C         2.1696722320       -2.1783008166       16.5567531727
  H        17.8437162758        2.5990435686       24.0577648869
  H        17.4726669987        1.4806414139       22.8744293369
  C        17.5734202283        3.1982667940       22.1125972316
  S        11.8571851096        6.1021748200       11.7455609221
  C        11.5608113658        8.7276402978       11.0616068715
  H         5.8912390621       -0.7918481832       38.7503426320
  H         6.1118551717       -2.4523009152       38.5387450492
  H         6.7555901311       -1.3773761191       37.3519469689
  H         2.1586795137       -1.7357126333       15.4971702599
  H         1.1160773376       -2.6177426342       16.7604932368
  H         3.0053431603       -3.0522056717       16.7093010584
  H        17.3333698382        2.5479488577       21.2995034502
  H        18.7108102271        3.2829248342       22.1100905189
  H        17.0670982501        4.1371843468       22.1574462403
  C        12.1718392731        6.7438866230       10.1122771877
  N        12.1530087839        8.1418764936       10.0073858896
  O        11.2548665909        9.8969793610       11.0721286637
  S        12.8128345994        5.9329631518        8.7149405503
  C        12.2896583741        8.9920009301        8.8241093564
  H        12.4068753444       10.1249048158        9.0423726244
  H        13.2861797719        8.7790812395        8.3049813750
  C        11.0835958642        8.9374725128        7.8789703093
  H        11.2274075395        7.9730651481        7.3896290793
  H        10.2325202959        9.1550089093        8.4603901079
  H        11.0227027925        9.6152898028        7.0892227507
  H        -3.7973868817       14.8326083789       16.4540881873
  C        -3.5407118927       13.8411660752       16.6715979827
  H        -4.4058249439       13.2112522212       16.8982563402
  C        -2.3850887912       13.6449259413       17.7532329533
  C        -2.9911143678       13.5776931256       15.3302177703
  C        -2.7518411652       14.3096538684       19.1399126467
  H        -2.5387418625       12.6145220567       17.9196194475
  H        -1.4010635216       13.8528853928       17.4507398167
  H        -3.3228097771       14.3691993085       14.6633745410
  H        -2.0244764173       13.4987031219       15.1789890464
  H        -3.1895131545       12.6083791857       14.9853167689
  C        -2.3782303770       13.2874196855       20.2311097321
  H        -3.8141220429       14.5653706942       19.4422686073
  H        -2.0637914422       15.1489227142       19.3100322853
  C        -2.3135894400       13.7380651232       21.6565139833
  H        -3.1446594248       12.5971493679       20.0681919050
  H        -1.4628264638       12.8267032549       19.9120212256
  C        -1.2531687343       12.9626750404       22.4169847914
  H        -3.2712620993       13.4251067796       22.1244515770
  H        -2.2940104732       14.7722614375       21.8242028193
  C        -0.0549287574       13.8566533035       22.8872620585
  H        -1.8080805341       12.5155765960       23.1889586782
  H        -0.8848490455       12.1489231009       21.8642822405
  C         1.2386350348       13.2251143141       23.4437903986
  H         0.2106717943       14.4469868768       22.0399744402
  H        -0.4184769612       14.5769652355       23.5945822436
  C         1.5861938080       11.8523113753       22.6818073133
  C         0.8700827146       12.4749704401       24.6189907457
  C         2.4877215780       14.1214691724       23.6147241156
  C         1.4614681681       10.7479615852       23.4464512384
  C         1.9687983028       11.5932635425       21.4101535923
  C         1.0302164770       11.1343788656       24.7641355671
  C         0.4346453766       13.0492806465       25.7587126408
  H         2.8226851902       14.5563258273       22.6493586501
  H         2.0871359955       14.9525216761       24.2473833088
  C         3.7999204247       13.4922846964       24.1227280655
  S         1.7614812903        9.2463624882       22.6041183082
  C         2.0929676845       10.2330034378       21.1194933478
  H         2.0226424844       12.4813993412       20.6778241438
  C         0.6348853685       10.5600726155       25.9292404539
  H         0.2199467806       14.1543769989       25.7533633555
  C        -0.0079220214       12.4719495238       26.9623284361
  H         4.0285800273       12.7224751692       23.3569847124
  H         3.6372139650       12.8885650558       25.0068934401
  C         5.1254427201       14.3801740979       24.0898384973
  C         2.3275073151        9.5839958079       19.8559450533
  C         0.1313580301       11.1920513578       27.0726762036
  H         0.7099993116        9.4146233651       26.0027556511
  C        -0.4745773479       12.8044280771       28.2118335283
  H         5.7765067555       14.0549465766       24.8209577861
  H         4.8760715658       15.3079521273       24.6150702780
  C         5.8737424063       14.3904025443       22.7571729981
  C         2.5137497484        8.1854724954       19.5917778491
  C         2.6724649022       10.4111408033       18.6822720339
  C        -0.3655229292       10.4425983798       28.2625860379
  C        -0.6745196815       11.6973653461       29.0586798598
  S        -0.9389957908       14.2852011913       29.0438010120
  H         6.7778666532       15.0702633316       22.9334122730
  H         5.4272207020       14.9757581790       22.0208226270
  C         6.4410652358       13.0606746418       22.2620430325
  N         2.2751859651        7.2197602944       20.5628511357
  C         2.6433452737        7.6581045903       18.3381719856
  C         2.8644774647        9.8583099675       17.4398323317
  H         2.9146564420       11.4716899891       18.8961357187
  C         0.7187046841        9.7553951966       29.0945077957
  C        -1.6068863746        9.5555321856       28.0163267313
  C        -1.0814062972       12.1001463853       30.3669988875
  C        -1.2162240090       13.4147222178       30.4888571451
  H         7.1074775593       12.4504574035       22.9274453150
  H         5.6347416468       12.2849789334       22.0211769374
  C         7.4347266337       13.3795657276       21.1129858577
  S         2.5102316829        5.7353255846       19.8796363257
  N         2.7172856669        6.2412029797       18.3300213974
  C         2.8337675473        8.3554878855       17.2181262187
  H         3.3025058375       10.4013661266       16.6505219565
  H         0.9123421174        8.7980786741       28.5113373324
  H         0.1976751787        9.3624572369       30.0139889361
  C         1.9495727992       10.5124533707       29.3861790724
  H        -1.4321411995        8.8377451559       27.2116304754
  H        -1.8412422438        8.8135050791       28.8183718252
  C        -2.8711044444       10.3725248513       27.6139708898
  H        -1.3267521670       11.3692228234       31.1253881704
  C        -1.5193184309       14.0554671397       31.8135129726
  H         7.8175658847       12.3591662240       20.9447054642
  H         8.1751916877       14.0854877871       21.4598647697
  C         6.6843463799       13.6875962939       19.7536636514
  C         3.0750282343        7.6352399733       15.9259842846
  H         2.2683086242       10.8586455569       28.3138885739
  H         1.9024280197       11.3915587841       30.0972629935
  C         3.0029899402        9.5507900227       29.9576202513
  H        -2.7104454490       11.1549834098       26.9549534273
  H        -3.2795299201       10.8108500138       28.5764055884
  C        -3.9147689052        9.5181981603       27.0077679999
  C        -1.7332728664       15.4819934552       31.9981138175
  C        -1.7552153859       13.2424146919       33.0041120054
  H         5.9378500613       12.9635466558       19.5554959991
  H         6.2244475261       14.6910770373       19.7563672422
  C         7.5568923931       13.6519888729       18.4381096471
  H         3.0271834757        6.5955431473       15.9934864347
  C         3.4706531312        8.0061384168       14.6746973224
  H         3.1789943197        8.6757301515       29.3148837306
  H         2.6990229898        9.1997127390       31.0194160207
  C         4.3163504357       10.3231331757       30.2212049715
  H        -3.7353667939        8.9638880681       26.0507021434
  H        -4.2342762948        8.6914898793       27.7851672192
  C        -5.1287858166       10.3170075646       26.7387662446
  N        -1.5389663693       16.4079259354       30.9908815654
  C        -2.2072732761       16.0863185013       33.1588138837
  C        -2.0929280894       13.7325786558       34.2193820583
  H        -1.7129405154       12.2282039422       33.0118903436
  H         6.9656797942       13.6717854256       17.5398966784
  H         8.1691866749       14.4615524437       18.3470304124
  H         8.0660828621       12.6623858156       18.4234085594
  S         3.8767967713        9.5678038741       14.1623875699
  C         3.6193272287        6.9301305436       13.6579404960
  H         4.2823459796       11.3695165194       29.8507233857
  H         4.5116347238       10.3713792401       31.2651343764
  C         5.5422636546        9.4538855340       29.7148939302
  H        -4.9040774453       11.2461950684       26.0071513152
  H        -5.3998000831       10.7107711740       27.6651517860
  C        -6.2506361258        9.6144926151       26.1652202558
  S        -1.7366514346       17.8416891460       31.6179555920
  N        -2.2626848968       17.4047545945       33.1068589843
  C        -2.4477743080       15.2520712537       34.3597688790
  H        -1.9037043171       13.1271737015       35.0504961088
  C         4.2173999318        8.8361491627       12.5503665517
  N         4.0626325732        7.5402323870       12.5481629597
  O         3.4819575317        5.7011659435       13.8665645012
  H         6.4275760228       10.0857046353       29.8177598313
  H         5.2281640423        9.1449905122       28.6871327090
  C         5.6999464362        8.1085770077       30.4355589526
  H        -5.8301993399        9.3915585850       25.2340847200
  H        -6.5301428632        8.6810513132       26.5337488689
  C        -7.5077416836       10.5203087795       26.2552049726
  C        -2.6849318993       15.8472021739       35.6165099845
  S         4.2950421647        9.7061584035       11.0454599754
  C         4.2311984846        6.7716482271       11.2394109602
  H         5.8019394426        8.2463340454       31.5536057370
  H         4.8313315196        7.6412943047       30.4089795533
  C         6.7619064234        7.1606241419       29.9426212192
  H        -7.4108365194       11.5722026342       25.8668190019
  H        -7.8634770688       10.6681020473       27.2615467212
  C        -8.7153533323        9.8640273201       25.4931359130
  H        -2.6979374430       16.9685532123       35.4795176452
  C        -3.2739490715       15.3727578621       36.7503480138
  H         4.9248206969        7.1188003112       10.4949559312
  H         4.6130578192        5.7798045548       11.4474499501
  C         2.8823293581        6.6035568253       10.5649142310
  H         7.7126291352        7.6997007079       29.9948495757
  H         6.5303992941        6.7798298234       28.9222012120
  C         6.7112551460        6.0255366455       30.8852389634
  H        -9.1710538568       10.4472855513       24.6774288936
  H        -8.4761858278        8.9336929025       24.9464954307
  C        -9.8741150783        9.6662680599       26.4974288211
  S        -3.7189091420       13.7607551016       37.1886340233
  C        -3.3294916212       16.4249465650       37.8799933068
  H         2.1305113548        6.4578326069       11.3380046256
  H         2.4265022928        7.4184821838        9.9902199812
  H         2.7686605123        5.8082443813        9.8342687491
  H         7.5392081077        5.4174219359       30.6214307325
  H         5.8952211730        5.3613732397       30.7620573287
  H         6.8685630571        6.3722831534       31.8672107728
  H        -9.7875791079        8.8914933128       27.1483268203
  H       -10.7369931624        9.5552766534       25.8893982133
  H       -10.1486456604       10.5962868570       26.9820436882
  C        -4.1832716529       14.5237895340       38.7662759861
  N        -3.9716389065       15.8593864502       38.8909109688
  O        -3.0540679069       17.6229921435       37.7600679186
  S        -4.9546727425       13.8016888548       40.2249447389
  C        -4.4113736417       16.7735094695       39.9999466904
  H        -4.9602136578       17.5263022069       39.5102167760
  H        -5.1092725497       16.2419279336       40.6928099455
  C        -3.1721014897       17.1804293396       40.8346235781
  H        -2.3115857491       16.7876252876       40.3717495623
  H        -3.0550246130       18.2605529992       40.7572304625
  H        -3.1167843805       16.7661080171       41.8524930465
