352
 i =    90300, time =    90300.000, E =        24.8318296028
  H        10.5415537519        7.3215776440       32.2329832421
  C        11.2931168615        6.5317783941       32.1825219843
  H        12.2473482232        6.9709340510       32.4030395984
  C        11.4757494469        5.9605740551       30.7360385652
  C        11.0981294674        5.4503593377       33.2854387421
  C        10.3501925065        5.0662825353       30.1821821527
  H        11.5468205353        6.8422146424       30.0429410649
  H        12.4151283739        5.4245814883       30.6922728588
  H        11.3210095937        5.7714431552       34.2974142328
  H        10.0515598383        5.0905462418       33.2313370291
  H        11.7474463302        4.6575437274       33.1467339340
  C         9.6250969380        5.5758065219       28.9444427376
  H         9.6495391513        4.8140437814       30.9503385705
  H        10.8080817769        4.1684352862       29.8622188668
  C        10.3657918087        5.5076595418       27.6323018352
  H         8.7379174539        4.9855068452       28.9325757378
  H         9.4580315158        6.6171614315       29.1486324126
  C         9.4576718253        4.8269553965       26.6053795616
  H        11.1851892752        4.8058982517       27.8341318447
  H        10.8387644379        6.4664840069       27.2852087954
  C         8.1962091555        5.7010172086       26.1357245185
  H        10.0982883920        4.5034277137       25.8323274977
  H         9.0297354316        3.9013166092       27.0494162547
  C         7.0371301426        4.9617397968       25.4637878954
  H         7.8269113191        6.3165024498       26.9012882990
  H         8.4529388449        6.3702488637       25.4016439843
  C         6.6591450274        3.6069535435       26.1826771849
  C         7.5482598547        4.1462582153       24.2673125483
  C         5.7519218708        5.7896720379       25.0400428137
  C         7.0288000629        2.4669107494       25.4494597658
  C         6.3159695624        3.2350842744       27.4366541022
  C         7.4905415111        2.8059286904       24.1664920128
  C         8.0618890400        4.8737252362       23.1879035219
  H         5.1235624356        5.0857569114       24.4836784608
  H         5.9366007365        6.5824547258       24.3613384138
  C         4.7289030555        6.1914091435       26.1677237702
  S         6.6310681202        1.0268193069       26.1738182466
  C         6.1583621929        1.9013800115       27.5247561340
  H         6.3648619655        3.9475468164       28.1598178021
  C         7.8557255283        2.3055345441       22.9621283802
  H         8.1934209441        5.9580945977       23.1436721739
  C         8.4111120491        4.2753151727       21.9705920749
  H         4.7903881715        5.4600432757       26.9668743572
  H         4.8510776674        7.2227703175       26.5242254017
  C         3.2355436918        6.2137527500       25.6534454206
  C         5.8532426628        1.1981718979       28.8419813148
  C         8.3269067299        2.9704428567       21.8188172532
  H         7.9926073404        1.2519809023       22.8839795121
  C         8.8337645191        4.6478819876       20.7030211393
  H         2.9882309280        5.2856600349       25.1631255067
  H         3.0432683539        7.0695666269       24.9548752020
  C         2.2718157587        6.2906190322       26.8266339434
  C         5.8054480866       -0.1777627230       29.0988198156
  C         5.3829738929        2.0982239605       29.9402168435
  C         8.6535435721        2.2465881438       20.5086318127
  C         8.9152961897        3.5623905608       19.8016373425
  S         9.1701367828        6.1508308664       19.9501228152
  H         1.3446235782        6.6279208525       26.3595580532
  H         2.5904791989        7.0150598830       27.5390720608
  C         2.0641887794        4.9217329172       27.4596996005
  N         6.1143255249       -1.1848485846       28.1666419748
  C         5.5272852955       -0.6765679811       30.3305944654
  C         5.1069428432        1.5950557230       31.1918288635
  H         5.2466091045        3.1661263782       29.8167201094
  C         7.5749738373        1.4756377410       19.7188325136
  C         9.9731734272        1.4241203335       20.7011057664
  C         9.1840692674        4.0146906261       18.5100200556
  C         9.3526726885        5.3669265752       18.4634996943
  H         1.6746167450        4.1915438881       26.7683802880
  H         3.0129305672        4.3367222411       27.6529178462
  C         1.1876055262        5.0518804477       28.7029581447
  S         6.0796984485       -2.5975317588       28.8722034636
  N         5.5630222687       -2.0774999744       30.2452312052
  C         5.1494297227        0.1390248291       31.3893050430
  H         4.6465366755        2.2340952750       31.8834274076
  H         7.4269280869        0.4631432235       20.0023102880
  H         7.8909341322        1.4208207464       18.6572916391
  C         6.1609650873        2.1701734012       19.7051413674
  H        10.3470532570        0.9314755386       19.7844418289
  H         9.8037727539        0.5846430359       21.4333536182
  C        11.1175454347        2.2222014782       21.1743335984
  H         9.1658726346        3.2476582484       17.6699986246
  C         9.6279093002        6.2065843403       17.2864902424
  H         0.8676242138        4.0563530392       28.9985526183
  H         0.2689407776        5.5847599676       28.4076457245
  C         2.0170986035        5.7429703078       29.8290017127
  C         4.9129496339       -0.4646466356       32.6005238952
  H         6.3002874485        3.1174150609       19.2544350004
  H         5.7018850693        2.4118231593       20.6855190178
  C         5.2103685686        1.3450947246       18.8883051423
  H        10.9469080913        2.8659673243       21.9953565402
  H        11.3565975230        2.8799782993       20.3527391302
  C        12.3018689602        1.3071970424       21.5100301809
  C         9.6825077625        7.5995411744       17.1549208181
  C         9.8411163809        5.5005695790       16.0831023310
  H         2.9006364125        6.2177240306       29.4278141009
  H         1.5244470488        6.6178950334       30.2762097527
  C         2.1950271594        4.7005784072       30.9603774100
  H         4.9444852082       -1.5965155003       32.5023822253
  C         4.7063773141       -0.0345880259       33.8820982778
  H         4.8885869573        0.4830353219       19.4320882391
  H         5.7118186330        0.9621949285       17.9894618919
  C         3.9384643545        2.1877905627       18.7272366597
  H        12.3302705928        1.0162507134       22.5359835761
  H        12.3969943417        0.4722505775       20.8188613816
  C        13.5662525987        2.2173135810       21.5679908093
  N         9.3256280473        8.5517960467       18.1126805756
  C        10.0132402054        8.2628858291       15.9635571067
  C        10.3172283322        6.1744208646       14.8804723849
  H         9.9349887619        4.4057537599       16.0330411928
  H         2.4771355438        5.2672633448       31.8550627121
  H         1.2877204931        4.1492696613       31.1398527346
  H         2.8678143704        3.8297670633       30.8523028309
  S         4.4766381296        1.6040963429       34.3397080425
  C         4.5493537574       -0.9964589308       34.9767245806
  H         3.8076917298        2.7327729854       19.6218404010
  H         4.0310198270        2.8996118393       17.9564675587
  C         2.7440680542        1.3895405494       18.4066385528
  H        13.3528113015        3.1939495462       22.0178055136
  H        13.7833560772        2.4195802531       20.5506576889
  C        14.7695273663        1.6422039484       22.1455382758
  S         9.5759895389       10.0371842559       17.5787835481
  N        10.0493580871        9.7051990467       16.0968845601
  C        10.3045032366        7.6301825569       14.7418704028
  H        10.5522112230        5.5310677619       14.0585842585
  C         4.2832691040        1.0127119569       36.0512932888
  N         4.2564215731       -0.3324880730       36.1526707557
  O         4.5414973933       -2.2324288293       34.8905578564
  H         1.9172820818        1.9844954731       18.0363996286
  H         2.3262934051        0.8965575315       19.3134390387
  C         2.9389516147        0.3166331245       17.2858182134
  H        14.5990770096        0.8159819605       22.8224955846
  H        15.3502196247        1.3010757509       21.3463478625
  C        15.6633690999        2.6503146980       22.8726519922
  C        10.6311191097        8.3361892881       13.5420267696
  S         3.7967462778        1.8972848307       37.4207770312
  C         4.3416895615       -1.0238738168       37.4729213348
  H         2.1570181721        0.5442772609       16.4799083481
  H         3.9213851020        0.6089696955       16.7885539880
  C         2.9051030677       -1.1367120838       17.7761403639
  H        14.9724112254        2.8866629326       23.7898967307
  H        15.7216784206        3.4764713521       22.1502049894
  C        16.9747025514        1.9970386547       23.2335977514
  H        10.8161886143        9.3835922659       13.6933816778
  C        11.0264769073        7.9277364074       12.3001042960
  H         3.4868637447       -0.6788586887       38.1892588924
  H         4.1265650927       -2.0609809994       37.3464621248
  C         5.7376323053       -0.9808950049       38.0994246259
  H         2.5573902747       -1.1140267644       18.8222182092
  H         3.8863826882       -1.5791463208       17.8886576102
  C         2.1181189871       -2.1234120264       16.9704150451
  H        17.4935349837        2.4972447645       24.0309365754
  H        16.8053501524        0.9049697279       23.3386878526
  C        17.9398126848        1.9914394409       22.0456248628
  S        11.4568311879        6.2891582725       11.7650681166
  C        11.0914544953        8.9407927973       11.2681006961
  H         6.5078025419       -1.0401402468       37.3322824491
  H         5.8638446482       -0.1335852685       38.7589872093
  H         5.8310301623       -1.9359260389       38.6575898483
  H         2.2325998740       -1.7927029490       15.9510384009
  H         1.0644474514       -2.1753886102       17.2415795037
  H         2.4709323302       -3.1449177143       16.8423580103
  H        18.8848284448        1.5608646928       22.4734333224
  H        17.9914192671        3.0593035181       21.8155788298
  H        17.6602781106        1.3820817411       21.1456645390
  C        11.8276155812        7.0999694282       10.2597949797
  N        11.5375768367        8.3971817836       10.1585366159
  O        10.6876500602       10.0981674971       11.4702607366
  S        12.3693363819        6.1503678878        8.8896268283
  C        11.4851579232        9.0579384234        8.9020805836
  H        11.6561417269       10.1167380040        8.9478384163
  H        12.3099754630        8.7275368397        8.2697663258
  C        10.1843636166        8.7112325119        8.2861881223
  H         9.4682123317        8.8604387571        9.0418285215
  H         9.9335174028        9.3095684796        7.4189341238
  H        10.0097891773        7.6805189994        8.0787683603
  H        -3.5982622159       15.0638936069       16.5617269159
  C        -3.2791769311       14.0720407202       16.5258869175
  H        -4.1950985786       13.4950894307       16.7276171161
  C        -2.2763109745       13.8688950913       17.6253111330
  C        -2.6949379663       13.7617651345       15.2045491625
  C        -3.0500502215       13.6349711352       18.9703611646
  H        -1.5511199546       13.0792160325       17.4429167008
  H        -1.8180360949       14.8632472507       17.7096682252
  H        -3.3621686458       14.0357390370       14.4435230487
  H        -1.7715682724       14.3372315631       15.1991611337
  H        -2.4183903362       12.7439149598       15.1238436470
  C        -1.9594748933       13.2979618867       20.0176007331
  H        -3.6126197407       12.6633967720       18.9223031645
  H        -3.6658483314       14.5243725828       19.0575511989
  C        -2.4890771138       13.0754485649       21.4081856885
  H        -1.5453747247       12.3576485760       19.7274576493
  H        -1.1696762276       14.1029767039       19.9665600519
  C        -1.4407542196       12.5222960882       22.3947310590
  H        -3.3224914064       12.3012496259       21.3991664541
  H        -3.0670066815       13.9575099537       21.7784070242
  C        -0.1706096538       13.4108295728       22.5317890740
  H        -1.9445553394       12.3040723020       23.3386996444
  H        -1.0708658015       11.5801793906       22.0796633482
  C         0.9754801660       12.6470230258       23.2147919384
  H         0.1383066246       13.6745365001       21.5676120853
  H        -0.3479147281       14.2151204545       23.1995642140
  C         1.3496558250       11.3799791551       22.4610497174
  C         0.6120944357       11.9560017101       24.4755328044
  C         2.1645616743       13.6023122923       23.3022734610
  C         1.3036404769       10.2763483461       23.2867839698
  C         1.8200087841       11.0280525954       21.1861445073
  C         0.8146658766       10.6213263967       24.5367260840
  C         0.1308851908       12.5971832168       25.6356179274
  H         2.2934977753       14.0768287335       22.3589514284
  H         1.8875279250       14.5013237940       23.8682983543
  C         3.4264007634       13.0420813658       23.8341412197
  S         1.7799470344        8.8066651584       22.5498433881
  C         2.1740918071        9.6823765349       21.0798551562
  H         1.8790366774       11.7605948459       20.3757782173
  C         0.3699179149        9.9047861403       25.6639231844
  H         0.2195302074       13.6619453485       25.6771769565
  C        -0.2830550973       11.8883016245       26.7091819295
  H         3.7548134501       12.2186490923       23.2373926392
  H         3.2279903610       12.6973042823       24.8204665640
  C         4.5138899680       14.1240316865       23.9229983932
  C         2.5677929484        8.9215995505       19.8178132895
  C        -0.1907377903       10.5586667818       26.8294852307
  H         0.4834531621        8.8326105207       25.6004045639
  C        -0.6475142341       12.2613726599       27.9647465677
  H         5.1734973512       13.9775536821       24.8053660451
  H         4.0170425191       14.9677193072       24.3507025927
  C         5.2249393647       14.3410069962       22.6374879680
  C         2.4162358025        7.5910673124       19.5007541938
  C         2.7577341991        9.7554711670       18.5844297143
  C        -0.6276010212        9.8473714059       28.1088239091
  C        -0.9433841262       11.1709662552       28.7585414802
  S        -0.9016508131       13.8213396191       28.7514877434
  H         5.8473972707       15.2848287247       22.6367074394
  H         4.5152179161       14.6200634578       21.8293762225
  C         6.0982436078       13.1222168117       22.2499886355
  N         1.9365380051        6.6027386948       20.4376839606
  C         2.8330496211        7.0859033246       18.3138730752
  C         3.0981321363        9.2721687149       17.3633641974
  H         2.7470188955       10.8031373617       18.6603307688
  C         0.4501028832        9.1356545534       28.9852805784
  C        -1.7588185404        8.9881027181       27.7446217293
  C        -1.3308035660       11.5910210785       30.1013608403
  C        -1.2949524529       12.9895240267       30.2316343862
  H         6.8717495625       13.1836366291       23.0402882229
  H         5.6978865889       12.2043624644       22.4547817124
  C         6.8329913154       13.2303220679       20.9121314025
  S         1.8128942190        5.2161490692       19.6288364546
  N         2.6225942573        5.6851417037       18.2870746748
  C         3.0493681938        7.7978709071       17.1744206176
  H         3.2002789596        9.9678583114       16.5696059711
  H         0.8816659039        8.2143675220       28.5692992644
  H        -0.1845210344        8.8849687906       29.8716536179
  C         1.6187781720       10.0469690679       29.4487932335
  H        -1.4474426130        8.2784512678       26.9819372970
  H        -1.9085911156        8.2931017103       28.5959276899
  C        -3.1631710328        9.6910567187       27.3380812283
  H        -1.6806299007       10.9215613827       30.8090433338
  C        -1.5741315710       13.5874381541       31.5425590830
  H         7.6730963279       12.6014056496       20.9072000537
  H         7.1810061544       14.2455998402       20.9150034365
  C         5.8510814956       12.9081280320       19.7050137981
  C         3.1244028186        7.1044847861       15.9440561871
  H         2.0121085569       10.8158161319       28.7253540895
  H         1.2928595942       10.6048790564       30.3600762403
  C         2.8368063763        9.3551013717       29.9470444229
  H        -3.0163938070       10.2604293487       26.4363006102
  H        -3.4544754358       10.5144575609       28.0226589724
  C        -4.2846063784        8.7171360442       26.9497179717
  C        -1.5656861991       14.9500072194       31.7697728202
  C        -1.6675206367       12.7176462500       32.7210310521
  H         5.2821221560       12.0351948250       19.8687731830
  H         5.1789745679       13.7461510558       19.6980524732
  C         6.5108609802       12.9247473719       18.3981837663
  H         2.8451496264        6.0268013037       15.9653562101
  C         3.4444371681        7.5002315364       14.6699414535
  H         3.0916794908        8.6185628040       29.2181909494
  H         2.6015243036        8.7763750832       30.8609102163
  C         3.9781316290       10.3177335797       30.2518189766
  H        -4.2272819137        8.4533339131       25.8610849057
  H        -4.4020224685        7.7496081725       27.5326865922
  C        -5.6520381116        9.3488020184       27.1107164069
  N        -1.4408206684       15.9847059707       30.8335514365
  C        -1.9547888206       15.4377229500       32.9458573877
  C        -1.9994248671       13.2090556658       33.9433144356
  H        -1.5119193691       11.6606681548       32.6418889513
  H         5.5936509824       12.5805430938       17.7925385684
  H         6.8690929562       13.9567644859       18.1956754484
  H         7.3509762577       12.2542742030       18.4418781999
  S         3.8297062025        9.1664256643       14.1850360275
  C         3.2822029181        6.5166143902       13.5855051460
  H         4.2642187584       10.9059772886       29.3901562686
  H         3.6246077005       11.0117447791       31.0798638825
  C         5.1092015408        9.4747247155       30.7077317936
  H        -5.6155412748       10.1000916757       27.9166660575
  H        -6.4408441852        8.6578851171       27.4427025202
  C        -6.0371642296       10.0801330248       25.7752337372
  S        -1.7874121153       17.3938543529       31.4990428176
  N        -2.0680659686       16.8288706803       33.0258328674
  C        -2.1611714535       14.6673734510       34.1085429749
  H        -2.0370534532       12.6105632157       34.8665502692
  C         3.8830139711        8.4521443653       12.5667867337
  N         3.6617549168        7.0851512050       12.4543681215
  O         3.0098307474        5.3237258702       13.6554934737
  H         4.7647061186        8.8256997011       31.5820837819
  H         5.7595553713       10.2052472419       31.1347911520
  C         5.9085327840        8.7062681338       29.5966548660
  H        -5.2644916711       10.8150791463       25.5206022877
  H        -5.8154376513        9.4243232685       24.9085181296
  C        -7.4138672369       10.6551291171       25.7444409659
  C        -2.4012979452       15.3185989235       35.4042718549
  S         4.1896566189        9.3330503572       11.0703328825
  C         3.3801636206        6.4493410092       11.1338179171
  H         5.3617212225        8.9492941949       28.6534886860
  H         6.9248176934        9.2034187131       29.5060174970
  C         5.9495508904        7.2100758384       29.7452535365
  H        -7.4483337500       10.9168045207       24.6747681366
  H        -7.4548120997       11.6581884821       26.2380853154
  C        -8.5290882825        9.6637747112       25.9856101003
  H        -2.1749177629       16.3619246178       35.3828475555
  C        -3.0757763277       14.9355037876       36.5843613524
  H         3.9611094171        6.7682527519       10.3288940502
  H         3.6542195440        5.3998329175       11.2561762464
  C         1.8426419718        6.4481235735       10.8554946589
  H         6.2814557971        6.7893167035       28.8242443226
  H         4.8907410119        6.9683105743       29.8802045375
  C         6.6789911100        6.6190869361       31.0303053162
  H        -8.1741984408        8.9320646339       25.2885457504
  H        -8.4894643264        9.2557297452       27.0241479771
  C        -9.8794392804       10.0279033250       25.4064708917
  S        -3.7547704281       13.4177846293       37.0245635225
  C        -3.2382008472       15.9609701998       37.6508648653
  H         1.4350303753        7.4462700988       10.7947468000
  H         1.4239798149        5.8630242385       10.0043749526
  H         1.4741503905        5.9286576255       11.7396759510
  H         6.4041480995        5.5603130725       31.1059365226
  H         6.4044420910        7.1756963937       31.9244275908
  H         7.7678548093        6.7390867754       30.9263119889
  H       -10.2642534538       11.0040115251       25.7367322781
  H       -10.6317357226        9.2764686728       25.8004990942
  H        -9.9433525934        9.8521359210       24.3423793788
  C        -4.1163198125       14.1100891298       38.6219360107
  N        -3.8630918807       15.4189386697       38.7013587409
  O        -2.8865512983       17.1469522556       37.5809586097
  S        -5.2031934580       13.4768953167       39.9235154470
  C        -4.2020510389       16.3419636532       39.8424349495
  H        -3.9996366962       17.4387984813       39.6052782705
  H        -5.2576871071       16.2540358672       40.0571005707
  C        -3.3006465415       15.9080601107       40.9761353722
  H        -2.6956010440       16.7435167703       41.4147558474
  H        -3.9751546045       15.5005049915       41.6944460667
  H        -2.7012669030       15.1000672565       40.6133523670
