352
 i =    83400, time =    83400.000, E =        25.0844181107
  H        10.9868849377        8.0574512330       31.1915648664
  C        11.9137427852        7.4920759194       31.4064051920
  H        12.7328035965        8.2635123950       31.4063090884
  C        12.1961742068        6.5177353472       30.2521499659
  C        11.6252316303        6.9550483197       32.7835411376
  C        10.9477981351        5.7147630845       29.8396553259
  H        12.4342176042        7.0794151285       29.3747046284
  H        13.0619453084        5.8597694415       30.3405065778
  H        11.7062411110        7.7922400434       33.5043207521
  H        10.5977824633        6.5244511163       32.9067403341
  H        12.3413611703        6.1340263243       32.9722461372
  C        10.1094068060        6.1651042390       28.6939133731
  H        10.2850082148        5.8145670748       30.7129995815
  H        11.0991481289        4.6639004556       29.7686544732
  C        10.3727731269        5.6965451631       27.3652542028
  H         9.0515440205        5.9786505140       28.9968655907
  H        10.1687204678        7.2239555707       28.6334976499
  C         9.2888561005        4.8657729478       26.8445846691
  H        11.2955229816        5.2035353930       27.2968966680
  H        10.4895016172        6.6091823809       26.7855491131
  C         8.1096943259        5.8068084209       26.3366427888
  H         9.7065984592        4.4648560213       25.9557461954
  H         8.9658738022        4.0921174747       27.5417914009
  C         7.0451555805        5.0254344471       25.5550535576
  H         7.6675143162        6.0541935236       27.2725381917
  H         8.2699001635        6.7319826673       25.8655885566
  C         6.6631978264        3.6588125643       26.2018496069
  C         7.6261025624        4.3748286577       24.3936767053
  C         5.9872130341        5.9748759178       24.9517034351
  C         7.0990083300        2.5698527002       25.4737387120
  C         6.2018126620        3.2034936717       27.4667612609
  C         7.6531308896        3.0518527224       24.2992550358
  C         8.2658648016        5.1143148147       23.3806905357
  H         5.3854695372        5.4992938458       24.1626617658
  H         6.4591187147        6.8751938241       24.4630012812
  C         5.0179955070        6.3791589016       26.0919634823
  S         6.9461967726        1.0312014190       26.1923295390
  C         6.2489767415        1.8050045184       27.5977242797
  H         5.9022297513        4.0244614557       28.1668690102
  C         8.1833716053        2.5343486981       23.1152049054
  H         8.2247958334        6.2137161819       23.3113073245
  C         8.7454166968        4.5882774427       22.2321973659
  H         4.9915921324        5.6101045462       26.8808390851
  H         5.5274298673        7.1682563703       26.5481644057
  C         3.5576664912        6.5499797852       25.6469842201
  C         6.0615935550        1.0795335861       28.8982755626
  C         8.6786753757        3.2521822628       22.0296458452
  H         8.1137225362        1.4806674362       23.0540314424
  C         9.1424081502        5.0168257138       21.0455407268
  H         3.3246629040        5.8291431049       24.9349041600
  H         3.4680557793        7.4947814159       25.1844228119
  C         2.6004561182        6.5349266707       26.8594451892
  C         6.0680216263       -0.3220143550       29.1036963239
  C         5.6286624614        1.9050578920       30.0687874880
  C         9.0168745908        2.5459246450       20.7826543304
  C         9.2825839076        3.9670439289       20.1787172120
  S         9.3958331052        6.4774503727       20.2520581018
  H         1.8472068707        7.2877972076       26.6840891151
  H         3.2195879808        6.9317195642       27.6406339821
  C         2.1128310684        5.1088688195       27.0628121794
  N         6.3217568977       -1.2901223259       28.1450013442
  C         5.8096110867       -0.8942856559       30.3371322719
  C         5.2361607687        1.3200350971       31.2710564800
  H         5.5632115139        2.9139362639       29.8856842829
  C         7.7985453540        1.7446544209       20.1872347619
  C        10.3194758187        1.6718846237       20.9190178889
  C         9.7519330485        4.3803040944       18.9451050509
  C         9.7923143885        5.7384275272       18.7934784970
  H         1.7256731947        4.8227270546       26.1587203950
  H         3.0563267534        4.5840890067       27.1648720521
  C         1.1420836774        4.9357017979       28.1495774156
  S         6.2629343723       -2.7351270923       28.8387687342
  N         5.9863972195       -2.2916404259       30.3660350324
  C         5.4302744251       -0.1444829031       31.5024939603
  H         5.0091494848        2.0483714515       32.0706410242
  H         7.7761804301        0.8700388625       20.8367342035
  H         8.0597033238        1.4093660842       19.1882266727
  C         6.3943562644        2.5230890904       20.1363959348
  H        10.5646812073        1.1845828131       19.9818391525
  H        10.1392963970        0.8994515413       21.6869117234
  C        11.5644761656        2.5596638055       21.3108366871
  H         9.9535100415        3.6664320182       18.1350460457
  C        10.2219051396        6.4346135526       17.5637573365
  H         0.8801575264        3.9411168091       28.3694221898
  H         0.2361192137        5.4626282794       27.8803244901
  C         1.7006620948        5.3549713866       29.5075149070
  C         5.2601536443       -0.8158864075       32.7770605971
  H         6.4950762301        3.5006815670       19.5958143016
  H         6.0947728644        2.7892087719       21.1365746343
  C         5.2006117648        1.6468300501       19.6754354567
  H        11.3537117447        3.2312866481       22.2123763658
  H        11.8854226793        3.1548548247       20.4809152520
  C        12.8259719452        1.7165492238       21.6660374124
  C        10.2682553812        7.8249867448       17.3710889684
  C        10.4575560804        5.6750231561       16.2739665322
  H         1.7240997451        6.4667859811       29.6204826330
  H         1.1310956920        4.9439927900       30.2657541881
  C         3.1899611892        4.9464581831       29.7174050781
  H         5.5120734768       -1.8479940620       32.8334156133
  C         4.8526523752       -0.3517096666       33.9888584556
  H         4.2948998014        2.3539258663       19.6668278109
  H         5.1017464913        0.9791556253       20.5179217641
  C         5.4246427980        0.9408456932       18.3595021360
  H        12.7544240275        1.0918918513       22.5164528898
  H        12.9827873558        1.0324549130       20.8231594571
  C        14.0557009406        2.5728102343       21.8890290784
  N         9.9791981132        8.7462091605       18.3682685009
  C        10.6944441676        8.4299639272       16.2088102460
  C        10.6569511562        6.3030283307       15.0349486852
  H        10.5249109446        4.5514128790       16.2626995497
  H         3.8216561993        5.6537886811       29.1194148870
  H         3.5836484585        5.0178100681       30.7138427579
  H         3.4015388192        3.8864702295       29.5219486362
  S         4.5108868547        1.3000999945       34.4841614504
  C         4.8390407414       -1.3225947872       35.1114111518
  H         5.9525608530        1.7171802893       17.8355109327
  H         6.0277106081        0.0589438437       18.3146151134
  C         4.0428899317        0.5153207993       17.7006252160
  H        13.7647106614        3.6292527207       22.0561872178
  H        14.5987764564        2.5375734089       20.9098462925
  C        15.0900715439        1.9792509255       22.9486192005
  S        10.2277011918       10.2304284897       17.7757415252
  N        10.7981844020        9.8193735795       16.3047451998
  C        10.7707897397        7.7661709245       14.9734143662
  H        10.8517849082        5.6330541737       14.1936599309
  C         4.3938583026        0.6938853788       36.1152168093
  N         4.7065312038       -0.6502638221       36.2892683945
  O         5.3363688440       -2.4245119060       35.0281163108
  H         4.1332401738        0.0572913784       16.7183491516
  H         3.4405763584        1.4874414312       17.5910273659
  C         3.4013467483       -0.4582342707       18.6674049431
  H        14.5102169325        1.6514315982       23.8100868901
  H        15.5188074359        1.0290519422       22.6797566542
  C        16.1956371747        3.0127409414       23.3028867617
  C        11.1244581907        8.5209086248       13.8262753817
  S         4.1259266803        1.7382780791       37.4778713749
  C         4.8296256181       -1.2709445226       37.6199443351
  H         4.1738717764       -1.1752886135       19.1043583948
  H         2.9924841260        0.1447656875       19.4887451209
  C         2.3196170072       -1.2661205575       18.0402287773
  H        15.9172274995        3.5379032870       24.2449926129
  H        16.2728240752        3.8146968530       22.5694414886
  C        17.5328895474        2.3708492068       23.5320239529
  H        10.9672023789        9.5404833970       13.8166401939
  C        11.6999055217        8.1718119558       12.6221116721
  H         4.0508051704       -0.8644723621       38.3514688910
  H         4.4775648413       -2.3449673494       37.5387857706
  C         6.2035537103       -1.1154574023       38.1744577992
  H         1.7734346665       -0.8025509172       17.2438856327
  H         1.5646450884       -1.5187381374       18.7496565023
  C         2.8889894577       -2.4680642394       17.2639896638
  H        18.0761032196        2.8211898449       24.3604769220
  H        17.3420596593        1.2736150626       23.8241877232
  C        18.4435229299        2.3579512243       22.2982943630
  S        12.0088166345        6.5839080822       12.1177083682
  C        12.0144012706        9.2334828098       11.5996904265
  H         6.9412510337       -0.7552165482       37.4869092279
  H         6.2697755612       -0.4038129243       38.9946653167
  H         6.5199455228       -1.9207010197       38.7837994476
  H         3.5410570482       -2.3179610829       16.4002644932
  H         2.0792133702       -3.2553876102       17.0924736184
  H         3.4540197544       -3.0692346150       17.9311919024
  H        18.7099514155        3.4421730662       22.0939118596
  H        17.9845529651        2.0528750223       21.3560629847
  H        19.4102225928        1.8102949782       22.3175323461
  C        12.5617046727        7.2284569239       10.5428214370
  N        12.5712738817        8.6237116057       10.5197033011
  O        11.8740850007       10.4884680578       11.7728445589
  S        13.1386565537        6.3085281730        9.2224714905
  C        12.7756000076        9.4271249768        9.3631728564
  H        13.0690369678       10.3999826265        9.7076673015
  H        13.5805323284        8.9953363582        8.7728131139
  C        11.5328498536        9.5320470645        8.4339848059
  H        10.7088228008       10.1078472078        8.8955246239
  H        11.7915759148       10.1393737371        7.6556996130
  H        11.1048230108        8.6276511286        8.0949491986
  H        -3.7792747418       14.6455579031       16.6565688135
  C        -3.4889744473       13.5923375099       16.6266373741
  H        -4.2638763826       12.9992208295       17.1241196788
  C        -2.2036089438       13.4310451455       17.4940553184
  C        -3.1192598900       13.1277881961       15.1535136414
  C        -2.5000213028       13.9342036301       18.9003994161
  H        -1.8537002532       12.4049232160       17.5143221343
  H        -1.5391292804       14.0568791989       16.9560806251
  H        -2.0072669326       12.9384392528       15.1324048557
  H        -3.6787310612       12.2768128220       14.9147508106
  H        -3.3651111177       13.9349288820       14.3869038746
  C        -1.5576438830       13.3026362083       19.9907724476
  H        -3.4973142132       13.6899428447       18.9646282539
  H        -2.3654935726       15.0220696130       18.8970888575
  C        -2.2295118789       13.4174028316       21.3965491593
  H        -1.4426180297       12.2289580778       19.8126378310
  H        -0.5394570763       13.6514259584       19.8682671651
  C        -1.3883887455       12.6220312987       22.4136889936
  H        -3.2730695337       13.1101978259       21.3479896644
  H        -2.3996058243       14.3908138348       21.8402538253
  C        -0.1228074974       13.4743045389       22.8553992317
  H        -2.0095780468       12.4709395532       23.3238463558
  H        -1.1520091228       11.6166527721       21.9921409950
  C         0.9848144338       12.8295076555       23.6300161993
  H         0.2505809745       14.0414131866       21.9718866958
  H        -0.7441785854       14.1838594368       23.5108485272
  C         1.4032461185       11.5103757797       22.9384667368
  C         0.5806740174       12.0073296050       24.8516790333
  C         2.1664443155       13.7687764824       23.8617700765
  C         1.2104518697       10.3831760333       23.7386643357
  C         1.9813569743       11.1968043898       21.7075912137
  C         0.6619895855       10.6828086289       24.9471846700
  C         0.1244660449       12.6469149861       25.9913213824
  H         2.2754311687       14.3719681933       22.9399567617
  H         1.9188319920       14.4586673800       24.6539638099
  C         3.4379547176       13.1355767298       24.1748297612
  S         1.7948326270        8.9228551860       22.9135925372
  C         2.1542743498        9.8578739552       21.4463784531
  H         2.2023673924       12.0101473977       21.0616721359
  C         0.3582712300       10.0433354591       26.0980441513
  H         0.1041119236       13.7071276736       25.9467051631
  C        -0.1437120423       11.9974780784       27.1380950290
  H         3.7320477490       12.3845612178       23.3750925062
  H         3.2614584151       12.6729779818       25.1146283313
  C         4.5992021285       14.0919402122       24.1750691233
  C         2.5649770060        9.2495319231       20.1350080074
  C        -0.0727773499       10.6348708529       27.2005946386
  H         0.5227225347        8.9020891494       26.0637395835
  C        -0.5461768551       12.3151886011       28.3844532207
  H         5.3249566705       13.6160093468       24.8470293052
  H         4.3063090830       15.0654906782       24.5032978780
  C         5.2863624036       14.2295494882       22.8011501332
  C         2.5382112268        7.8614097967       19.8149979450
  C         3.0492351024       10.1739346892       19.1326805122
  C        -0.4239959826        9.8836488547       28.4758051134
  C        -0.7323842374       11.2435026128       29.2150952898
  S        -0.8631824562       13.7780016500       29.1527095178
  H         5.7289462268       15.2151050399       22.6956364003
  H         4.5683755083       14.1235425947       22.0235038840
  C         6.4777144502       13.2307332845       22.6308092420
  N         2.0862859060        6.8847195800       20.6701483379
  C         2.8764477743        7.4139314083       18.5513014178
  C         3.3681855538        9.6835115288       17.8211875675
  H         3.4166526691       11.1266775212       19.3755162645
  C         0.6881443737        9.0787244566       29.0947840638
  C        -1.6588209297        9.0094245020       28.1865212683
  C        -1.1068333782       11.6188995701       30.5166947026
  C        -1.1526368599       12.9570887418       30.6869680329
  H         6.9696984276       13.3154082254       23.5783491127
  H         6.1534350075       12.2068666182       22.4500040181
  C         7.5382170102       13.6900349527       21.5223677226
  S         2.1739062916        5.4449034356       19.9485733313
  N         2.8102883546        6.0134536759       18.5473111353
  C         3.2058330233        8.2685560877       17.4909192995
  H         3.7472959181       10.4287661854       17.1637017078
  H         0.9386489900        8.1844868158       28.6495966055
  H         0.4090196080        9.0017114415       30.1423381628
  C         1.9500209938        9.9334998008       29.4126697968
  H        -1.3252099775        8.1264706649       27.5588144004
  H        -1.8165267203        8.6462180454       29.2128636899
  C        -2.9027171530        9.7075573237       27.6401530708
  H        -1.1994219933       10.8610412385       31.2539089536
  C        -1.3403208642       13.6603782124       31.9759649123
  H         8.4636520276       13.1256472333       21.6289392827
  H         7.7433912337       14.7178738803       21.7875939411
  C         6.9312164552       13.6249218061       20.1169509131
  C         3.4725099971        7.6474508565       16.2036606547
  H         2.3454882822       10.4185900899       28.4471260274
  H         1.6594771767       10.8312647147       29.9298993613
  C         2.9920331570        9.1819910302       30.2363429295
  H        -2.7974410939       10.2039233740       26.6552868123
  H        -3.2362184167       10.3989928871       28.4711810302
  C        -4.0440752510        8.7664783968       27.3748944467
  C        -1.3753039912       15.1248662320       32.0740482980
  C        -1.6831676394       12.9417092959       33.1986770619
  H         6.5019512456       12.7009823089       19.9215162514
  H         6.2237082654       14.3919912294       19.8645275614
  C         7.9668337554       13.7756096710       18.9904521197
  H         3.0910117209        6.6003023941       16.1744024358
  C         3.9273169499        8.0953620368       14.9671662102
  H         3.2082131758        8.2455777945       29.7492121458
  H         2.6110056395        8.9698625147       31.2323540125
  C         4.2943114954       10.0344856657       30.4116674794
  H        -3.6897447826        8.2112061015       26.4534426988
  H        -4.2495886952        8.0791108926       28.1686924512
  C        -5.4482634286        9.4407981423       27.1191356653
  N        -1.2452693952       16.0304161782       30.9904404682
  C        -1.5572459821       15.8226023632       33.2350615337
  C        -1.7946276614       13.6394791829       34.3874228145
  H        -1.7824812158       11.8742794350       33.2594235085
  H         8.8982937847       14.2442298099       19.4001191825
  H         8.2637308845       12.7807450929       18.5903531762
  H         7.6083804481       14.4937102048       18.3505331119
  S         4.3854919455        9.6149359747       14.5678735041
  C         3.7594551250        7.1186099276       13.8503608120
  H         4.7244941156       10.1669679386       29.4272727246
  H         4.0419673244       11.0370978923       30.7820208323
  C         5.4093513125        9.3725862477       31.2371982349
  H        -5.5444310962       10.2633498575       27.7843778906
  H        -6.2178800901        8.6570714612       27.2842645997
  C        -5.6059759834        9.8178283114       25.6120841097
  S        -1.3892505098       17.5719284023       31.5456685392
  N        -1.4941893349       17.2349919941       33.1257539100
  C        -1.8946812066       15.1391332079       34.4279733488
  H        -2.0391294646       13.1299578878       35.2846837495
  C         4.4827913029        9.1045816614       12.8603898425
  N         4.2672610698        7.7696065747       12.7507767135
  O         3.3635331102        5.9981847407       14.0384486753
  H         5.0157014753        8.8945882296       32.1287464162
  H         6.0874388325       10.1859547924       31.6459004146
  C         6.3018070619        8.3636428264       30.4947713605
  H        -4.7522661502       10.4246954207       25.4284964380
  H        -5.6669482446        8.8672877022       24.9649705166
  C        -6.7836064332       10.7244917153       25.2681475599
  C        -2.0676640114       15.9297435335       35.5612061856
  S         5.0734439849       10.0641317822       11.4962641656
  C         4.3573494086        7.0616358208       11.4470224827
  H         6.0731968764        8.3459034185       29.4000206334
  H         7.3366505039        8.6473683413       30.3985093000
  C         6.0568276932        6.9915267988       31.0578963828
  H        -6.7503695901       11.0095797083       24.1736133079
  H        -6.7113462845       11.6742051766       25.8473208770
  C        -8.1296797805        9.9873627882       25.3231909582
  H        -1.7459785091       16.9129552805       35.4481223261
  C        -2.5548258856       15.6582045326       36.8186362594
  H         5.0653430958        7.5234318988       10.7808014237
  H         4.8452245561        6.1590769799       11.7730495804
  C         2.9605414703        6.8102355038       10.8149809584
  H         6.2899575242        6.3017217649       30.2839583610
  H         4.9612568766        6.8147525699       31.2845852252
  C         6.8952915582        6.6812262657       32.3451882141
  H        -8.7195732929       10.4774445095       24.5651971935
  H        -7.9510557860        8.9970725544       24.9043165287
  C        -8.9098509404        9.9680389867       26.6294860532
  S        -3.2875914176       14.1516012818       37.3837254161
  C        -2.5578864629       16.7527797257       37.7755494672
  H         2.1163359880        6.9363906506       11.4453696512
  H         2.7686624144        7.5815209953       10.0514649724
  H         2.9113750742        5.8263884699       10.2921183938
  H         6.3310560872        6.8072342179       33.2451291312
  H         7.8647445958        7.1944156423       32.4882405144
  H         7.2602652444        5.6931596844       32.1758245791
  H        -8.5242979965        9.1604706252       27.3076157476
  H        -9.9667965282        9.6971325888       26.3311052065
  H        -9.0506875501       11.0412492438       27.0191457903
  C        -3.4339437644       14.9630174424       38.9143296979
  N        -3.1680564044       16.2913667572       38.8750267836
  O        -2.1856749418       17.8715305152       37.5383176396
  S        -3.9481637946       14.1995787319       40.3990580777
  C        -3.2716641773       17.1526968651       40.0702540490
  H        -3.3707918042       18.1804316117       39.7714488486
  H        -4.2364568980       16.9920623651       40.5300601655
  C        -2.0938150101       17.1081530993       41.0443221359
  H        -1.2802292673       16.4742829047       40.7087957447
  H        -1.7541935345       18.1525299645       41.3304188117
  H        -2.4127426354       16.6067785039       41.9688804247
