352
 i =    51600, time =    51600.000, E =        24.9530031016
  H        12.1623118510        6.8740320667       32.7024473669
  C        11.6801833017        5.9062243601       32.6296701916
  H        12.3625522204        5.0838318824       32.3037785882
  C        10.5685639956        6.3353869676       31.6791375645
  C        11.2188186694        5.5396781789       33.9944473623
  C        11.0388055404        6.2160445136       30.2108924739
  H         9.7260732314        5.6410843665       31.8041390230
  H        10.1616603232        7.3199993932       31.8600262367
  H        10.6025639302        6.2975137083       34.4376495471
  H        10.7074278786        4.5625312273       34.0511077703
  H        12.0281362808        5.3680259448       34.6540209900
  C         9.9039352202        6.0127552304       29.1716840467
  H        11.6652989236        5.3234368657       30.0054997582
  H        11.5590413671        7.1745594536       29.8542551275
  C        10.5052793229        6.0216913689       27.7259935374
  H         9.3802849078        5.0933256407       29.3896724823
  H         9.1835972750        6.7866091739       29.3841221276
  C         9.6280913929        5.2369802168       26.6748820190
  H        11.3802938666        5.4335284086       27.7951136128
  H        10.7404740326        7.0317606023       27.4240811134
  C         8.4504996351        6.1027064061       26.1941840566
  H        10.2857066642        5.0818423128       25.7836316477
  H         9.3382691496        4.3438118450       27.1757927601
  C         7.3237722995        5.2660634483       25.5291949612
  H         8.0003472478        6.6564906494       27.0253279042
  H         8.7862947318        6.8353273060       25.5144555220
  C         7.0159310012        3.8752866973       26.1579343181
  C         7.9111955379        4.5501210032       24.2883692448
  C         5.9902615065        6.0425027688       25.2665904553
  C         7.2451559975        2.8283008880       25.2875993235
  C         6.4824876736        3.4140239219       27.3839999501
  C         7.9378495852        3.2155228738       24.1837518731
  C         8.3241287686        5.2670952412       23.2404781840
  H         6.2542160194        6.9271536162       24.6243625562
  H         5.6067585374        6.4477588297       26.1706586510
  C         4.8572036471        5.2893248077       24.6027457771
  S         6.7430400400        1.2228214570       25.9599046931
  C         6.1805298233        2.0694879863       27.3849817343
  H         6.2789431906        4.0970746771       28.1360875680
  C         8.3005371189        2.6167097773       22.9731497099
  H         8.0529091513        6.3698658909       23.2390624307
  C         8.7591572938        4.7361486681       22.0027070572
  H         5.3236408708        4.7951029482       23.7731530510
  H         4.6805729674        4.4367160845       25.2889055153
  C         3.6851916909        6.1345301969       24.3210311915
  C         5.5580261089        1.3581221686       28.5327030890
  C         8.7257342440        3.3893789027       21.8769592517
  H         8.0233339287        1.5810523458       22.8632848525
  C         9.1628025131        5.1652598053       20.7265336225
  H         3.0752091680        5.5743924180       23.5638457583
  H         4.0402225943        6.9856903593       23.7987520489
  C         2.7693049605        6.3868177500       25.5691764243
  C         5.6079743241       -0.0564888669       28.8049182208
  C         4.9859081341        2.1944781886       29.6292589850
  C         9.1213161186        2.8221279086       20.5645783152
  C         9.2537154402        4.1205546740       19.8163859999
  S         9.4365433758        6.6473734041       19.8951980884
  H         1.9718011139        7.1887877177       25.4237914429
  H         3.3960139333        6.6376226997       26.4050445860
  C         1.8912482920        5.2374847344       25.9131064458
  N         6.1115247137       -0.9526167511       27.8709734356
  C         5.3534767629       -0.6206445289       30.0554246231
  C         4.8124182052        1.6127613143       30.8828552416
  H         4.7999216587        3.2554731082       29.5265408870
  C         8.1522613274        1.9884980029       19.8404167859
  C        10.4297748195        2.0620624660       20.5361854819
  C         9.7462654533        4.4708734501       18.5122293876
  C         9.8635759280        5.8227747884       18.3500026083
  H         1.3030866956        4.8925291417       25.0857424730
  H         2.5466077558        4.4307350642       26.1534700251
  C         0.9142509323        5.4800211725       27.0870673489
  S         5.9895126050       -2.4107093848       28.5743772722
  N         5.4793204437       -1.9626160951       30.0821913867
  C         5.0751591179        0.1696987381       31.1984547382
  H         4.5192529958        2.2533647002       31.6653759764
  H         7.8405011344        1.1253820174       20.5172729060
  H         8.6563070299        1.6504547968       18.8840036804
  C         6.9221043861        2.7670085135       19.3596531879
  H        10.7471250435        1.6326235551       19.6092236917
  H        10.2065170632        1.1100512263       21.0855463044
  C        11.6638007442        2.6737844481       21.1510025580
  H         9.8578700226        3.6748017726       17.8106325841
  C        10.1582026964        6.5679456255       17.0730562679
  H         0.0869632931        4.7502204938       27.1577243886
  H         0.4718711820        6.4404569195       26.8332087788
  C         1.5264578660        5.5783013812       28.4905561593
  C         4.8815842353       -0.4341358841       32.4936954294
  H         7.2052021736        3.4201385375       18.5950762030
  H         6.5182072562        3.3319038721       20.2244275234
  C         5.8807391193        1.8293785769       18.7004249155
  H        11.4351706818        2.8284840352       22.2252195132
  H        11.8120438505        3.7455979554       20.8046167315
  C        12.8579931219        1.7936069826       21.0514937356
  C        10.2281084538        7.9754584082       16.8677093147
  C        10.3442370794        5.7622289338       15.8266839294
  H         2.0077909514        4.6348188947       28.7790721195
  H         2.2387403538        6.4227149393       28.5117611510
  C         0.4973206020        5.9244438573       29.5923424470
  H         5.1002562190       -1.4935918828       32.5241919736
  C         4.5624022587       -0.0076635911       33.7363665230
  H         5.4911668301        1.1969832539       19.4577628619
  H         6.3081617885        1.2016632585       17.9295543777
  C         4.6830447585        2.4745330111       18.1212731125
  H        12.8014304266        0.9719878470       21.7653407985
  H        12.7991676023        1.2853603125       20.0790250732
  C        14.1679454103        2.4714693121       21.0711365948
  N        10.0170529717        8.9016254820       17.8805271110
  C        10.6426868184        8.5114417023       15.6675531050
  C        10.7697463252        6.3467052156       14.6338582559
  H        10.3409769460        4.7121935379       15.9920689899
  H         0.7987079695        6.7981483863       30.1311471917
  H        -0.4327440440        6.1559970214       29.1261312742
  H         0.3031166817        5.0885866166       30.3047510551
  S         4.0279797499        1.6005599203       34.2165625633
  C         4.6044342393       -0.9741582274       34.8573921577
  H         4.4571663896        3.2662204389       18.8432081225
  H         5.0019030051        2.9592689869       17.1095870568
  C         3.4129496873        1.5252650915       18.0619653432
  H        14.0563513836        3.4016214409       20.5040823433
  H        14.8335949926        1.7656179477       20.6015646942
  C        14.5278448857        2.8408966422       22.5359365424
  S        10.0324971326       10.3849173377       17.1470055524
  N        10.7342341163        9.9218254265       15.7700243978
  C        10.9197887818        7.7853759211       14.4981761711
  H        10.9455932812        5.5122102029       13.8248157959
  C         4.0955477433        0.9976103983       35.8555163152
  N         4.2873130732       -0.3451564395       35.9803586944
  O         4.9911680860       -2.1302745668       34.8062679005
  H         2.6754632580        2.1297331539       17.5521768186
  H         2.9314337275        1.3067337649       18.9313927527
  C         3.5778477717        0.3698486040       17.1141559217
  H        15.2085126169        3.6651001696       22.6362740974
  H        13.6830180840        3.1640220572       23.1750822020
  C        15.2237275634        1.7270264064       23.2471153158
  C        11.4101851842        8.5163175508       13.4348150180
  S         3.7387257369        1.9149685133       37.2416227612
  C         4.3713662271       -0.9933006014       37.2904420756
  H         3.7029729480        0.6980736112       16.0905229775
  H         4.5079684985       -0.1727463828       17.3227049430
  C         2.3162181654       -0.5816193120       17.0731844296
  H        15.2397160405        0.9464494808       22.5776706780
  H        14.6153747659        1.2493953665       24.0368358429
  C        16.7527533451        1.9912747596       23.5133473244
  H        11.5075279943        9.6077090546       13.5007406438
  C        11.8392806980        8.1620971719       12.1971543408
  H         3.5272576295       -0.7045188834       37.8963672424
  H         4.2628455484       -2.1353719254       37.2089124501
  C         5.7604012385       -0.8140034275       37.9331145352
  H         1.5274828877       -0.0658625631       16.5031467360
  H         1.8739834707       -0.9481125081       18.0226888370
  C         2.7326045831       -1.8035651913       16.2208720484
  H        16.9305835376        2.7916977751       24.2785561957
  H        17.1019925481        1.0836995059       23.8998828825
  C        17.6003609031        2.3292873337       22.2927352283
  S        12.4348265737        6.5758169927       11.6775952821
  C        11.9207619009        9.1674083594       11.1278688197
  H         6.5170970962       -1.4992146968       37.5573470288
  H         6.1125594530        0.2348564254       37.6736463456
  H         5.7170098599       -0.8222242164       38.9999785358
  H         1.9119818974       -2.3998195860       15.7722087016
  H         3.3075778855       -2.4295030297       16.8397313739
  H         3.3634789616       -1.5700227844       15.3822158709
  H        17.4036140841        3.3405904482       22.0043176212
  H        17.4768265383        1.7181177071       21.3858744076
  H        18.6095235430        2.2470821274       22.5961579835
  C        12.7139937401        7.2751579497       10.0652381736
  N        12.3617914335        8.5634013742       10.0013157563
  O        11.4031514537       10.2903918841       11.2326974525
  S        13.2772311013        6.4921849712        8.5914219729
  C        12.1362140823        9.3090531059        8.7799130984
  H        12.4458339742       10.3385180106        8.8487798583
  H        12.8147105939        8.9838401141        8.0182535494
  C        10.7280000667        9.2406079991        8.1301158560
  H        10.6524186361        8.8677175613        7.1009125918
  H        10.0223501680        8.7102603115        8.7645522637
  H        10.2094482268       10.2461591426        8.2913118607
  H        -0.9693135520       13.2525292213       17.2135570022
  C        -1.4629531356       14.1925517567       16.8594805098
  H        -0.5845477490       14.7449670929       16.5012747436
  C        -2.0660065844       14.8810018999       18.1437111656
  C        -2.5116437453       14.2810349210       15.7246171496
  C        -2.9372268401       13.9522718147       18.9822093768
  H        -1.2105318164       15.2165654734       18.7358113920
  H        -2.6573639428       15.7443385524       17.8873426804
  H        -2.5666843383       15.3221741522       15.3046868727
  H        -2.1743449309       13.5710901844       14.9573819295
  H        -3.5358257665       13.9138490032       15.9530482361
  C        -2.1808442096       12.9959098959       19.9243600260
  H        -3.4700138171       13.3887519845       18.2389375563
  H        -3.6487826097       14.6033556686       19.5167269530
  C        -2.5020101544       13.0975645530       21.3946056425
  H        -2.4548818876       12.0110981114       19.5741572166
  H        -1.1324272806       13.1436557221       19.8328697328
  C        -1.3207697827       12.6959655758       22.2989418459
  H        -3.4132092401       12.5432805087       21.8445665512
  H        -2.7404927779       14.0879240667       21.5675010877
  C        -0.1061328658       13.6264713603       22.2592783476
  H        -1.7115367671       12.5272794655       23.3183856034
  H        -1.0561866239       11.6549425756       22.0105996121
  C         0.9358699636       12.9325906271       23.1315691297
  H         0.3623861624       13.8970869430       21.2785318246
  H        -0.3538302646       14.5161466864       22.8718622551
  C         1.4329818496       11.6417451196       22.4844856155
  C         0.5017462452       12.1233008873       24.3754388932
  C         2.1484862277       13.8917674081       23.3490055586
  C         1.1813062679       10.4966145730       23.2231322216
  C         2.0509501288       11.2928523223       21.2737390468
  C         0.6050516345       10.7685171890       24.4639257543
  C         0.0589335018       12.7699159002       25.4889657358
  H         2.3556809505       14.4228386495       22.4418573712
  H         1.8953912694       14.7028349773       24.0470821809
  C         3.4021123771       13.2754098401       23.9618086932
  S         1.6442208711        8.9875840989       22.3976889158
  C         2.1935317586        9.9136816903       21.1077115310
  H         2.3107211158       12.1300910882       20.6516876966
  C         0.2700315041       10.1386675531       25.6357719637
  H        -0.0194034106       13.8497299835       25.3219683454
  C        -0.3207756654       12.2080851947       26.6508228700
  H         3.8181453167       12.5610008628       23.2498412770
  H         3.2763741120       12.8034168526       24.9371490547
  C         4.4760378516       14.4119891103       24.1666266864
  C         2.6672632035        9.3435088768       19.7906298939
  C        -0.1855776625       10.8830212145       26.7569556242
  H         0.4154234938        9.0400032853       25.8153726441
  C        -0.7308215069       12.6030816095       27.9258277492
  H         5.1792680807       14.1983310572       25.0143619308
  H         4.0943421415       15.4241544604       24.4318191239
  C         5.3604453704       14.6342207437       22.8851435250
  C         2.7339240328        7.9118278088       19.4820227175
  C         3.0904709119       10.3111984405       18.7179105825
  C        -0.5863053458       10.1644234725       27.9754215917
  C        -0.8533504825       11.4914356209       28.7531011873
  S        -1.0924748810       14.1105730588       28.6110136789
  H         5.7826550911       15.5982444633       22.9708927674
  H         4.7128863227       14.6602181351       22.0178653496
  C         6.2938327862       13.4305894012       22.7548592912
  N         2.3955022852        6.8277032510       20.3033280951
  C         3.0567299633        7.4716563621       18.1626486346
  C         3.3468034345        9.7625445379       17.4190839835
  H         3.2022521532       11.3687352949       18.9896858554
  C         0.5574017282        9.3389060714       28.7088436345
  C        -1.9602648593        9.3730797293       27.8235326215
  C        -1.2178911500       11.9057260289       30.0079898113
  C        -1.3867618289       13.2738947152       30.1246104793
  H         6.9537603928       13.6769451010       23.6418077459
  H         5.8823955654       12.3568126767       22.7576310953
  C         7.2347971206       13.5724861467       21.4608469780
  S         2.4051508210        5.4518824833       19.3989688695
  N         3.0167105247        6.1064878011       18.0362680915
  C         3.5060858434        8.3025660777       17.1578895574
  H         3.6665657791       10.4720075748       16.7527057831
  H         1.0753686745        8.5585791956       28.1158876115
  H         0.0984040204        8.7598641003       29.4910558009
  C         1.5244340140       10.2942916155       29.4009646505
  H        -1.8566770837        8.6570473222       27.0241861696
  H        -2.1801745512        8.7967351574       28.7369788579
  C        -3.2192091518       10.3044640052       27.6853669117
  H        -1.3510247437       11.1536789130       30.8271819796
  C        -1.7936660589       13.9298346349       31.3996470598
  H         8.2764832546       13.1399177544       21.7537569059
  H         7.2704219412       14.6439879764       21.3300662017
  C         6.5624542425       12.9258261992       20.2560621822
  C         3.6992138608        7.7142688741       15.8410437140
  H         2.0433029109       10.9697349684       28.7218057081
  H         1.1516206219       10.9907167741       30.1747440925
  C         2.6818781572        9.5297305459       30.1627915328
  H        -3.0605982119       11.0859404581       26.8769667170
  H        -3.3234942604       10.7998728043       28.6364688613
  C        -4.4794711109        9.5481565925       27.4573638235
  C        -1.8960220418       15.3140027422       31.5832176240
  C        -1.9750642737       13.1809331017       32.6673641009
  H         7.1205386368       11.9903981702       20.0284671805
  H         5.6240862668       12.5148744722       20.5770922933
  C         6.3468074413       13.7607111986       18.9757278037
  H         3.6179313774        6.6489059545       15.7127214706
  C         3.9502954867        8.2690349728       14.6091971726
  H         3.2085533812        8.7940408334       29.4754044411
  H         2.2119938918        8.8051377568       30.8252238926
  C         3.7487890526       10.3777180888       30.8071355942
  H        -4.4780172255        8.9610280498       26.5616013401
  H        -4.5747668744        8.7501811562       28.2096819574
  C        -5.7139166686       10.4719799756       27.3783406092
  N        -1.6037988486       16.2185365981       30.5849434641
  C        -2.1475203469       15.9267477565       32.8148201158
  C        -2.3089743300       13.8044861962       33.9119215262
  H        -1.7849908522       12.0789503650       32.6569089294
  H         5.4305770966       13.4554188427       18.4928801777
  H         6.1442174266       14.8245743166       19.2540590625
  H         7.1544750985       13.8366519849       18.2633349461
  S         4.2731214314        9.8810392759       14.1787614441
  C         3.9908248161        7.2836673425       13.4457765401
  H         3.7335750979       11.3424437685       30.2978247678
  H         3.6437426872       10.4995212610       31.8814418133
  C         5.1496203092        9.8986011851       30.5256648430
  H        -5.6361425917       11.3021394527       28.0267285662
  H        -6.5983900182        9.9886106153       27.8021069950
  C        -6.0402946110       10.9710168753       25.9567078552
  S        -1.7332901076       17.7017220992       31.2455778558
  N        -2.2122430243       17.3325654744       32.7408230858
  C        -2.3733982703       15.2540474823       34.0610276357
  H        -2.5154600628       13.2196893416       34.7532335782
  C         4.6551289081        9.2397930492       12.5739516545
  N         4.5158682556        7.9219248124       12.3865277046
  O         3.7591364119        6.0663894962       13.4498830912
  H         5.8657536602       10.7539000580       30.5948394861
  H         5.1727541094        9.5345027559       29.5051294415
  C         5.5154127926        8.7545468738       31.4472640255
  H        -5.5003561023       11.8779445813       25.7928067352
  H        -5.6339791647       10.3345716115       25.1453578088
  C        -7.5220363724       11.0491451342       25.7641259314
  C        -2.5750611504       16.0715860020       35.2245539095
  S         5.2054646753       10.1783814964       11.1185242028
  C         4.7805262259        7.1225166018       11.2059825467
  H         6.0717139907        9.1388055829       32.2326198826
  H         4.6187052001        8.4174017606       31.9835614183
  C         6.3407305110        7.6459257781       30.8188206628
  H        -7.5769110067       11.5079255210       24.7831277121
  H        -7.9881927358       11.6520024279       26.5414308788
  C        -8.2308102262        9.6892059352       25.7188152155
  H        -2.3140588530       17.1687605182       35.1029303613
  C        -3.3335503706       15.7990157081       36.2702186598
  H         5.4900901955        7.6352559361       10.5476123946
  H         5.2537155324        6.1414825309       11.4489020942
  C         3.5558630133        6.9412823737       10.4425224185
  H         7.1635759821        8.1766820824       30.3623508227
  H         5.8387740183        7.2465347574       29.9453605062
  C         6.6086208653        6.4944246911       31.7576453496
  H        -7.7845137059        8.9413107459       24.9456067426
  H        -8.0093178683        9.1739441769       26.6074830112
  C        -9.6893348762        9.9064056376       25.2798472269
  S        -3.9310197276       14.2627762126       36.8172971934
  C        -3.4307449993       16.7522025609       37.3431216008
  H         3.2769720414        7.8118384104        9.8921532716
  H         3.6774939646        6.1554622770        9.6988129398
  H         2.7436858393        6.6275296912       11.0768303900
  H         6.8670449963        6.8762999203       32.7347021066
  H         7.4324722066        5.8284820442       31.4614387637
  H         5.6521549394        5.9086912231       31.8355542514
  H       -10.3978025965        9.1867924254       25.6440817666
  H        -9.8407582963        9.8941055692       24.1871371674
  H       -10.0211404824       10.8687880700       25.5362075239
  C        -4.4139740285       15.0280546774       38.2645860357
  N        -4.0908453977       16.3041074297       38.3789530189
  O        -2.9479627824       17.8868580245       37.3188329492
  S        -4.9684468724       14.1038890186       39.6508567784
  C        -4.0140448390       17.0614483872       39.6174054050
  H        -4.2468522513       18.1518175715       39.5722543425
  H        -4.8146603013       16.6590672970       40.2896161478
  C        -2.6084341720       16.8747265256       40.3394658817
  H        -2.1968905679       17.8188290633       40.5547956152
  H        -2.6967068492       16.3173585660       41.2819814529
  H        -1.9131083526       16.5500902564       39.6467838320
