352
 i =    42500, time =    42500.000, E =        25.0995190366
  H        12.0980456602        7.2288365694       31.9875791873
  C        11.3919815681        6.3989936338       32.0210213223
  H        11.9643985459        5.5649576232       31.4492398044
  C        10.0996432564        6.5914829503       31.2195660772
  C        11.2587432807        5.8674079676       33.3756824932
  C        10.4067732301        6.9421151270       29.7774295856
  H         9.5798052340        5.6001703125       31.2599738684
  H         9.4335024880        7.3790921047       31.6880624691
  H        12.0437268233        6.3155661332       33.9723253706
  H        10.2668477146        6.0168365470       33.6587095105
  H        11.4703713148        4.7994574593       33.4329994142
  C         9.6798250556        6.0233655315       28.8114999302
  H        11.4755320221        6.9463777634       29.7093980958
  H        10.0266221711        7.9709540261       29.5131364574
  C        10.3489657440        6.0933361068       27.4211450150
  H         9.5904969326        4.9118188880       29.1831484615
  H         8.7842390423        6.5129582139       28.8383067304
  C         9.4801493966        5.3017600838       26.3761622707
  H        11.3245511937        5.6410864551       27.5005894405
  H        10.3761871521        7.1724122615       27.2169028105
  C         8.1910864973        6.0862471803       25.8911386533
  H         9.9721863318        5.0688690126       25.4061842805
  H         9.1947079206        4.2936568423       26.7381170205
  C         7.1035600074        5.3682736266       25.0576570928
  H         7.6970171999        6.6020103263       26.7836739004
  H         8.5261250561        6.9126040982       25.3374862903
  C         6.7682766089        3.9877835692       25.8055940322
  C         7.6574168815        4.6554251400       23.9015786609
  C         5.8512222455        6.2010609045       24.6853915268
  C         7.0787765395        2.9265128370       24.9810355212
  C         6.3432256370        3.5931516601       27.1052369810
  C         7.5749979803        3.3318171754       23.7973822190
  C         8.1871906526        5.3507046122       22.7973347494
  H         6.1829443055        6.8796920318       23.8972749984
  H         5.6097057702        6.9378459997       25.4502462505
  C         4.6204468903        5.3592172896       24.1984449960
  S         6.6913907338        1.4264372434       25.7255855052
  C         6.3416799983        2.2487287452       27.2180060853
  H         5.9764557230        4.3137818735       27.8296683776
  C         7.9801426806        2.7169646362       22.5822211115
  H         8.0109958454        6.4047028819       22.7647810742
  C         8.5861177024        4.7207446875       21.6642064606
  H         4.5847284739        5.0616981932       23.1695200794
  H         4.5208938631        4.4394629300       24.7334931546
  C         3.2865736698        6.0319620598       24.1682504120
  C         6.0773234218        1.5641569725       28.5286897867
  C         8.4554461249        3.4141108692       21.4846025356
  H         7.8888678185        1.6000427048       22.5027218894
  C         8.9897023182        5.1194710435       20.4332349037
  H         2.4799761455        5.5233194634       23.6647102601
  H         3.2792208481        7.0104313112       23.6562895578
  C         2.8528807750        6.3209009060       25.6325349241
  C         6.2298611084        0.2355557492       28.8821518468
  C         5.5750365679        2.3887621743       29.6748815132
  C         8.8618130200        2.6862157080       20.1573219333
  C         9.1231435446        4.0615807739       19.5653646902
  S         9.3449433466        6.6289486849       19.7407422712
  H         2.4024202669        7.2291396327       25.6367487300
  H         3.6812060995        6.4862129842       26.3038661914
  C         2.0302676337        5.0833936982       26.1201164894
  N         6.5333551997       -0.7181475781       27.9140959806
  C         5.9942071617       -0.3426327338       30.1069724809
  C         5.4010520229        1.8786194518       30.9605951208
  H         5.2951761390        3.3998263744       29.5141817835
  C         7.7465226647        1.8823754629       19.4735181663
  C        10.1897627131        1.9019742774       20.3565569002
  C         9.5033924529        4.4449581985       18.3007956951
  C         9.6877777873        5.8139207997       18.1936960234
  H         1.3771645106        4.7740350782       25.2789976171
  H         2.6153947835        4.1913490332       26.2225632853
  C         1.3446939634        5.3691189169       27.3803553110
  S         6.6278691649       -2.1541655212       28.5687113543
  N         6.1486698215       -1.7300801820       30.0789505040
  C         5.6180615078        0.4102613958       31.2372570614
  H         5.0565749055        2.5385184811       31.7349998025
  H         7.4445493384        1.1308710854       20.1424594846
  H         8.0973263248        1.4384917830       18.5275772794
  C         6.5365257580        2.7128392907       19.1161650253
  H        10.4277954035        1.2664011949       19.5197081074
  H        10.0562463536        1.1960970229       21.2120220740
  C        11.3829021063        2.8186919332       20.7483730024
  H         9.5770168613        3.7281073390       17.4856410501
  C         9.9767148349        6.5965938014       16.9176220504
  H         0.5309087227        4.6973159990       27.4965148859
  H         0.9403296947        6.3810145684       27.3236799429
  C         2.3270802131        5.4234772141       28.5297345633
  C         5.5393870930       -0.2947612687       32.4913984844
  H         6.8443386205        3.6478104278       18.6218432280
  H         5.7867993740        3.0721608155       19.8145838617
  C         5.8640072403        2.0057468297       17.9529935842
  H        11.1103431950        3.6225040790       21.3536329887
  H        11.7831146654        3.2185879560       19.8548466390
  C        12.6229239792        2.1250875827       21.3530648652
  C        10.0327565109        7.9838468159       16.7662046891
  C        10.2017046957        5.7986204243       15.6576186667
  H         3.1130757863        4.7136808575       28.4850381080
  H         2.9021463152        6.3188235526       28.6177071137
  C         1.5450088057        5.3656547380       29.9064175469
  H         5.6070688137       -1.3497668812       32.3493351035
  C         5.2418143566        0.0459466467       33.7804812551
  H         6.0506254640        0.9240147242       18.0558028189
  H         6.4580488270        2.3389188153       17.0545272149
  C         4.3988056588        2.3371068808       17.7616248911
  H        12.4639377814        2.0055190867       22.4055680472
  H        12.8472155159        1.1651594220       20.9905698210
  C        13.8720628685        2.9738751899       21.0280105617
  N         9.7865143520        8.9528492728       17.7674522502
  C        10.3118263372        8.5961276471       15.5467746677
  C        10.6300254924        6.4100814931       14.4500222340
  H        10.1257150166        4.7216083950       15.7610708706
  H         0.7033747625        4.6907523374       29.8327432917
  H         2.1637024222        5.0235750923       30.6883419093
  H         1.3554859675        6.2911789663       30.3272618141
  S         4.8740633522        1.6147696533       34.2763457445
  C         5.0123953777       -1.0472157737       34.7883085083
  H         4.0361962025        3.0376849730       18.5935458466
  H         4.1378516395        2.8821292608       16.8369857756
  C         3.5689442511        1.0908891543       18.0626198524
  H        13.5683073717        3.9286081517       20.6875984138
  H        14.4948373585        2.4082487426       20.3548229819
  C        14.7885400976        3.0481776200       22.2515865436
  S        10.0566584562       10.4255878210       17.1647730230
  N        10.3562009294        9.9970740842       15.6416759711
  C        10.7405386902        7.8895218477       14.3763949143
  H        10.8743848332        5.7914292505       13.7034140343
  C         4.6000448335        0.8389929972       35.8985403391
  N         4.6218909675       -0.5133211233       35.9292579042
  O         5.0815518436       -2.2460393818       34.5158458027
  H         2.6249049162        1.5595008079       18.3545270045
  H         3.9884022915        0.8434391963       19.0297449102
  C         3.6126801859        0.0021442969       16.9897687951
  H        15.5782214961        3.7286846958       22.0184151195
  H        14.3420693408        3.4844127487       23.1388292974
  C        15.4888196361        1.7463517174       22.6970347359
  C        11.1118475992        8.6557776135       13.1746423921
  S         4.0488116413        1.7023267664       37.3194929784
  C         4.4754749971       -1.3302432755       37.1623377209
  H         3.1281187293        0.4721226149       16.1479890380
  H         4.6522760634       -0.2127658916       16.6782580100
  C         3.0086853380       -1.3356301343       17.5916408745
  H        15.6860494658        1.0503781302       21.8455984063
  H        14.7309777865        1.1525685908       23.3297358295
  C        16.7820852375        1.8951369714       23.4808893465
  H        11.1158574475        9.7287497745       13.2689007766
  C        11.5495691115        8.3333919206       11.9375766189
  H         3.8703348394       -0.8735194275       37.9295650577
  H         3.8103014805       -2.1606148329       36.8257482435
  C         5.8764220327       -1.6789589768       37.7623796270
  H         3.4373200434       -1.6069738695       18.6057813176
  H         3.3151948958       -2.1259921989       16.8813546844
  C         1.5205439467       -1.2958110760       17.7028630494
  H        16.5381654771        2.7362947365       24.0724993744
  H        16.8279331644        1.1013763611       24.1548115698
  C        17.9932108448        2.0051289941       22.7042403258
  S        11.7525968334        6.6998429446       11.4064569615
  C        11.8664737656        9.4670386332       10.9565952208
  H         5.7639111027       -2.5141350022       38.4245944581
  H         6.6290249803       -1.9212599724       37.0132609012
  H         6.3304454947       -0.7867932980       38.2938391011
  H         1.1031867083       -2.3025064257       17.7084867398
  H         1.1405642710       -0.8146605401       16.7535443777
  H         1.2255154093       -0.7527667042       18.5425215938
  H        18.8665830491        1.9727854131       23.3175250118
  H        18.0945247021        2.9626378052       22.2107525760
  H        17.9661188384        1.2236087019       21.9339386295
  C        12.3901202311        7.5270962275        9.9157520715
  N        12.3010478343        8.8720133510        9.8261802384
  O        11.8089401822       10.6731569652       11.2183402512
  S        12.8030899733        6.6317866421        8.4357016608
  C        12.5163473554        9.6199025276        8.6523276415
  H        12.6509185256       10.6909697139        8.9540279040
  H        13.3544719213        9.2943595792        8.0860991031
  C        11.2645477758        9.6182384886        7.8300128802
  H        10.2504063130        9.5676791652        8.2806124262
  H        11.1303234559       10.5393908056        7.2500429039
  H        11.3870465288        8.9567691946        7.0044310461
  H        -4.0625390887       12.7385724013       16.3604025881
  C        -3.0752844940       13.1911178236       16.4548480138
  H        -2.4348526498       12.2936291488       16.6822437437
  C        -3.0444142666       14.3586147929       17.4048502568
  C        -2.5864120124       13.4180131915       15.0486657332
  C        -3.2693345195       13.9516934119       18.8195471947
  H        -2.2138709740       14.9565618075       17.3325685891
  H        -3.7408753489       15.1033450668       17.1207311967
  H        -1.6303329686       13.7745421208       15.1437727331
  H        -2.5395710353       12.4169664701       14.5854205689
  H        -3.1442040455       14.1648521549       14.4384258821
  C        -1.9034710910       13.7143956216       19.6916909997
  H        -3.9479771952       13.1465458252       18.9889741616
  H        -3.7014450184       14.8766992677       19.2691916232
  C        -2.2711591561       13.8210396959       21.1727417664
  H        -1.4398736359       12.7723245702       19.5005351357
  H        -1.1523637368       14.4562841102       19.5435817444
  C        -1.2031943139       13.1849819388       22.0916369660
  H        -3.1917296227       13.3474451505       21.3725720664
  H        -2.4594166309       14.8559886119       21.4238811824
  C         0.1935639005       13.8970188318       22.2286969312
  H        -1.5062816099       13.0866364221       23.1217021387
  H        -1.1591974526       12.1178126490       21.7345375321
  C         1.3727916684       13.1011520597       22.9630468450
  H         0.6177770914       14.2009279190       21.2314399313
  H        -0.0187617680       14.8043787887       22.7409217110
  C         1.7242722837       11.7652755813       22.3046434983
  C         0.9648296978       12.4070309391       24.2300548677
  C         2.6368100896       13.9527595362       23.2231533150
  C         1.5824631570       10.6960978310       23.1590803243
  C         2.0614326911       11.3923240983       21.0094437898
  C         1.0764829911       11.0845301367       24.3801073379
  C         0.4014007513       13.1345791716       25.2688933902
  H         2.7107375392       14.6161369176       22.3249128566
  H         2.3553897772       14.5768823155       23.9992139633
  C         3.9477248026       13.1756838129       23.4719378302
  S         1.9995159209        9.2146163943       22.3954315909
  C         2.3624632601       10.0556174511       20.9028309660
  H         2.1731554877       12.1856910535       20.2833593939
  C         0.5161222132       10.4767630547       25.4254311286
  H         0.3411506250       14.1749336619       25.1593822197
  C         0.0506014803       12.5617808284       26.4401375515
  H         4.0654411539       12.3197587259       22.9095575876
  H         3.8749049117       12.6979636735       24.4277892038
  C         5.2153404162       14.0436342737       23.4684641550
  C         2.8398379444        9.2776932853       19.7003077839
  C         0.0797668449       11.2178232535       26.5159662501
  H         0.6038938372        9.3705864810       25.4761282594
  C        -0.3253536783       12.9677584267       27.7087980684
  H         5.9853317435       13.7081957378       24.0898185046
  H         4.8697150487       14.9513242427       23.9827917084
  C         5.9062951593       14.3473318659       22.1397802365
  C         2.7068180143        7.9435377771       19.4446627213
  C         3.3098416722       10.0879871632       18.5453022173
  C        -0.4015231052       10.5217815521       27.7793733438
  C        -0.5891582778       11.8748542699       28.4777306653
  S        -0.5194497987       14.4764819658       28.5524485629
  H         6.7345753434       14.9418866986       22.2961772348
  H         5.2822265977       14.9598302030       21.5484038224
  C         6.3296638358       13.1171985984       21.3432298377
  N         2.3621095069        6.9602615260       20.4262006479
  C         3.0223938540        7.3693820845       18.1984883298
  C         3.4093008516        9.5767359025       17.2366838804
  H         3.4827027456       11.1371094118       18.7906254754
  C         0.7308474006        9.6658898080       28.4005174594
  C        -1.7441642154        9.7665877055       27.4935805027
  C        -0.8421450325       12.2797373131       29.8205900767
  C        -0.9611638702       13.6106657484       29.9613585034
  H         6.4433153294       12.1898212002       21.9808142940
  H         5.5022935738       12.9572308380       20.7390572268
  C         7.5415253690       13.2915673262       20.3077410623
  S         2.4876232069        5.4667367853       19.7643098634
  N         2.9472214094        5.9530955568       18.2536965633
  C         3.2753429750        8.1033628913       17.0028889934
  H         3.7112926920       10.2559246150       16.4206077377
  H         1.1723550327        8.9935367169       27.7311003864
  H         0.2102199897        9.1265217697       29.1568659295
  C         1.9073347711       10.3529727271       29.1843126571
  H        -1.4069771758        9.0304028474       26.7413294936
  H        -2.0262250910        9.1844985058       28.3975714745
  C        -2.9591619208       10.7129853293       27.1285049017
  H        -0.9479020672       11.5512553036       30.6084101064
  C        -1.3347488401       14.3293606289       31.1871135497
  H         7.7897714317       12.4566515034       19.6823329949
  H         8.4589632056       13.5087307369       20.8564008203
  C         7.4174724008       14.2862240263       19.2329424412
  C         3.2621427937        7.4567143576       15.7395475537
  H         2.2500034079       11.2860156981       28.7537105612
  H         1.3422644176       10.6824184559       30.1075681436
  C         2.9759563865        9.3262575200       29.5053234457
  H        -2.8179095142       11.2633327888       26.1680817529
  H        -3.1180670222       11.4282949992       27.9230056574
  C        -4.1245747638        9.8080651727       26.9437118905
  C        -1.2167002995       15.6812463456       31.4016849479
  C        -1.7362347467       13.5070195196       32.3646835070
  H         6.4563143625       14.8727579375       19.3451276638
  H         8.3146640933       14.9543572786       19.2358379022
  C         7.6474978920       13.7457889086       17.8110063745
  H         3.1302894924        6.3583277333       15.8985859137
  C         3.5275082783        7.8963267123       14.5026261598
  H         3.5112061348        8.9658899120       28.6416761396
  H         2.4696021031        8.5427011228       30.0465312114
  C         3.9509995920        9.9168288475       30.5230939977
  H        -3.8827834504        9.1154177914       26.1440609320
  H        -4.3224461525        9.2297298229       27.8366236862
  C        -5.3314822907       10.5416959048       26.5050969780
  N        -0.9966485160       16.6845916987       30.4087442025
  C        -1.5880344707       16.2733867630       32.6081588556
  C        -2.1496086612       14.1074969939       33.5839906492
  H        -1.8425828533       12.4550805016       32.2614150152
  H         8.2510917133       14.4228379065       17.1567294978
  H         8.3441239104       12.9193301744       17.7078231969
  H         6.6776428678       13.4283206806       17.4365845807
  S         3.8922414027        9.5288069950       13.9468573012
  C         3.6393034852        6.8577959458       13.4588321019
  H         4.3325193133       10.8659940377       30.2314618610
  H         3.4546787661       10.0414243600       31.4615340572
  C         5.1775665304        9.0342073662       30.6574551659
  H        -4.8606889834       11.0882827295       25.7411478342
  H        -5.7900051866       11.1782804993       27.2228616615
  C        -6.3811630381        9.5908102580       25.9711773175
  S        -0.9915682331       18.1479161418       31.1284409871
  N        -1.5406903659       17.6876526416       32.5572255929
  C        -1.8941936275       15.5251523633       33.7866419127
  H        -2.4529152057       13.4395177563       34.3648816951
  C         4.1697209473        8.7620403888       12.3685995925
  N         4.1284567100        7.4038132599       12.3103030652
  O         3.4120069254        5.6144472694       13.6597330241
  H         5.6224439271        9.3725022018       31.5942757567
  H         5.8626203569        9.2365765765       29.8786028360
  C         4.9649361597        7.5657331978       30.6403310191
  H        -5.8997100263        8.9279364888       25.2793853336
  H        -6.8687298592        9.0783962591       26.7617242913
  C        -7.4880244214       10.4916976288       25.1737265004
  C        -2.2358102054       16.2996235000       34.9928486720
  S         4.8030214634        9.6814305286       10.9514451111
  C         4.2550392286        6.6182269192       11.1180241246
  H         4.1105311069        7.3503151818       31.2105876870
  H         4.8049189312        7.2245801126       29.6437102066
  C         6.1147903636        7.0086037981       31.3530011177
  H        -7.2265387591       10.5142268397       24.1358468678
  H        -7.3657096844       11.5232581690       25.3848723440
  C        -8.9609206851       10.1185482241       25.4225462941
  H        -2.2360367752       17.3765118013       34.8287854946
  C        -2.6065033810       15.8912689111       36.2543951311
  H         5.0818682358        7.0599200393       10.5802988152
  H         4.5166992623        5.6167430355       11.3958640094
  C         3.0065649523        6.7676723524       10.2745417091
  H         5.9249156727        7.2972687651       32.3567896217
  H         7.0844226419        7.2958178475       30.9178759422
  C         6.0660863526        5.5007035684       31.2520025521
  H        -9.5142362417       10.8299528925       24.8412262317
  H        -9.3402304838        9.1732371536       25.0734193385
  C        -9.3983371114       10.4730284263       26.8455742976
  S        -3.0297370824       14.2672908964       36.7870902026
  C        -2.8051844598       16.9297306211       37.2504609080
  H         2.7804579594        7.7564682247        9.9184324127
  H         3.0184795557        6.0661930358        9.3981372876
  H         2.1502137497        6.4742042670       10.8495347128
  H         5.1031816233        5.0949364771       30.8811505214
  H         6.2704073820        5.0628882247       32.1923064375
  H         6.7799617869        5.1974417390       30.4740119920
  H        -9.5128136870       11.5205700747       27.1692960238
  H        -8.7479853120       10.0962972931       27.6008180395
  H       -10.3874632767        9.9520678898       26.9546400223
  C        -3.4382168094       15.0703475378       38.3221485639
  N        -3.3075377703       16.4065759446       38.3985919254
  O        -2.5608142077       18.1426762806       37.0062990705
  S        -3.9926161946       14.1294631015       39.6907761346
  C        -3.4636519953       17.3111161978       39.5327223904
  H        -3.5555062295       18.3802732744       39.1410380952
  H        -4.3669183261       17.0506908145       39.9678165594
  C        -2.2280568596       17.3713412619       40.5106600506
  H        -1.6552286462       16.4724179217       40.5015649715
  H        -1.4191240609       18.0416285712       40.0298409506
  H        -2.4347731982       17.9323249303       41.4467397229
