352
 i =    95800, time =    95800.000, E =        24.9058707260
  H         9.8800348353        5.1485206118       32.0096047064
  C        10.5145374328        6.0007882121       32.3934875127
  H         9.8231620695        6.6511408182       32.9074798601
  C        11.1553466043        6.7581657977       31.2234066259
  C        11.4973768648        5.3081720508       33.3839910846
  C        11.7707395296        5.9833989986       30.0751463981
  H        10.3911107555        7.4426899979       30.8034628946
  H        11.9695945053        7.3262596954       31.5548458003
  H        12.2495237447        4.6598558531       32.9197659301
  H        12.0008973175        6.0693715137       33.8905124539
  H        10.9873692519        4.6388267448       34.0529779216
  C        10.7272448931        5.4796167810       29.0823856897
  H        12.2503046397        5.1586155687       30.5266523678
  H        12.6036780351        6.5020401952       29.6138101711
  C        11.1761124594        5.5671479071       27.5951202679
  H        10.6331551982        4.4060285831       29.3418886188
  H         9.6988866457        5.8292895707       29.0707417939
  C        10.1511665446        5.0440046955       26.5632787952
  H        12.0226220517        4.8894763326       27.6096666397
  H        11.4813204077        6.5660175861       27.4545510184
  C         8.9630272618        5.9586627349       26.0618113135
  H        10.5882342519        4.7186059144       25.5979551646
  H         9.8322640402        4.0774723124       26.9743662820
  C         7.7511853811        5.2900493027       25.3259237793
  H         8.7276013940        6.4224249663       26.9780442464
  H         9.3737999158        6.6416983076       25.3575815627
  C         7.3485248679        3.9295619329       25.9796550473
  C         8.1061764666        4.6145339874       24.0925576464
  C         6.5211955848        6.2679358109       24.9810763920
  C         7.5739840042        2.8451534984       25.1492967802
  C         6.8039880163        3.5633641586       27.2397537785
  C         8.1137331617        3.2553615681       23.9956709942
  C         8.5340840006        5.2953421908       22.9213463626
  H         5.9453426256        5.8729779300       24.1502664997
  H         6.8510755817        7.2632089069       24.6754489972
  C         5.5706758367        6.6030383730       26.2185386649
  S         7.0257451799        1.3201612646       25.8212888435
  C         6.6172052072        2.1910883975       27.3052684667
  H         6.5881499930        4.2629812730       28.0110571732
  C         8.4973658439        2.6512712707       22.8675959451
  H         8.5054218090        6.4412978294       22.8205829340
  C         8.8385810435        4.7186009767       21.7525467619
  H         5.4733909297        5.6694894819       26.8297112213
  H         5.9882690198        7.4171075133       26.7624529768
  C         4.1252792445        7.0679038065       25.8684076151
  C         6.1132765038        1.5470526627       28.5634381193
  C         8.8207210347        3.4063643562       21.7055568218
  H         8.5266024946        1.5463810000       22.9478413888
  C         9.2689074684        5.1010219959       20.5121507659
  H         3.7067186019        6.5759392039       25.0124280820
  H         4.2598747932        8.1126198030       25.5256700912
  C         3.1820644023        6.9886531696       27.0348279003
  C         6.1410141381        0.1461398814       28.8697320585
  C         5.5592965230        2.4527686211       29.7031342154
  C         9.2037958318        2.6410270882       20.4617879776
  C         9.4431317406        3.9795104761       19.7184402657
  S         9.6507690568        6.5986096128       19.7996642095
  H         2.3288532005        7.5786058151       26.9404704609
  H         3.6696995853        7.4276169361       27.9214208590
  C         2.6263669374        5.6258795487       27.3663394475
  N         6.6313706858       -0.8564906912       28.0046377294
  C         5.8104258421       -0.3698713973       30.1127759372
  C         5.4575000437        1.8777083218       31.0064252849
  H         5.3452682992        3.5084829473       29.5605125082
  C         8.0993850270        1.7366653770       19.7953395753
  C        10.4965034289        1.9215191732       20.6683777088
  C         9.7958708964        4.3802198809       18.4214194801
  C         9.9708185815        5.7488088787       18.3190199493
  H         2.2387047464        5.2101889439       26.4421754687
  H         3.4217631942        4.9036770355       27.7049066620
  C         1.5317050827        5.6914148811       28.4248298552
  S         6.5174054084       -2.2194344904       28.7265332848
  N         5.7803994886       -1.7762128613       30.1128610687
  C         5.3680085891        0.4074479087       31.1941565437
  H         5.0889872402        2.5410921114       31.7395605174
  H         7.8316404341        0.8087121192       20.3149516831
  H         8.5274734000        1.3671872552       18.8746044574
  C         6.8036346593        2.5472082911       19.4671631379
  H        11.0706619636        1.8628717343       19.7251003008
  H        10.3027757415        0.8952518008       21.0379797658
  C        11.5876806672        2.6266017514       21.4544379790
  H         9.9691488468        3.5828474428       17.6593033327
  C        10.2654450296        6.4745482990       17.0474212935
  H         0.7355180291        4.9757288977       28.4382261862
  H         0.8397791968        6.5864736400       28.3324187225
  C         2.2144597955        5.6793427804       29.7808038939
  C         5.2233981658       -0.2412141646       32.4672475003
  H         7.0475875337        3.3370442762       18.7756371435
  H         6.2608151353        2.9086590450       20.3208934641
  C         5.8380836087        1.6857045248       18.6832397149
  H        11.2367338691        2.6900864408       22.5227771799
  H        11.6567048009        3.6913232875       21.1460523826
  C        13.0300831661        2.0042113014       21.4096408977
  C        10.4000303932        7.9020594416       16.8404311167
  C        10.5749398077        5.7212610690       15.8483174340
  H         3.0646730627        5.0128245758       29.9546372722
  H         2.6015492785        6.6558112820       29.9885589947
  C         1.3012567560        5.4652348876       30.9621041623
  H         5.2159376846       -1.3266475491       32.3167895773
  C         4.8783788891        0.0748575028       33.7884878620
  H         5.4586007348        0.8661843371       19.2747215693
  H         6.3623113859        1.2737233960       17.8571469825
  C         4.5838272845        2.4356469444       18.1706568106
  H        12.9587549591        0.9981856321       21.8443954428
  H        13.2279062578        1.9115076728       20.3653191788
  C        14.0711881847        2.8764234668       22.1180564370
  N        10.2691238661        8.9343090759       17.8077046574
  C        10.7953530748        8.5221017650       15.6266063912
  C        10.9315021289        6.2850383695       14.5967284559
  H        10.6395179037        4.6828270691       16.0076189107
  H         0.6009927283        4.6759308089       30.8076729086
  H         1.8766033223        5.1335799191       31.8479236916
  H         0.7414623491        6.3980693355       31.3195033503
  S         4.6424821569        1.6772144970       34.3275495689
  C         4.8577153593       -0.9676955145       34.7696306125
  H         4.5340124044        3.4827311001       18.5216270541
  H         4.8317249024        2.8202594739       17.1238197624
  C         3.3475040032        1.6033789385       18.1639584166
  H        13.6787546295        3.1610430579       23.1434174581
  H        14.3362797856        3.8039741118       21.5840013729
  C        15.4244659131        2.1245773634       22.3851316763
  S        10.4183252505       10.3740978367       17.0549248133
  N        10.8618523125        9.8718317137       15.6119545986
  C        11.0862824399        7.7547664494       14.4885950660
  H        11.1710110525        5.6303529356       13.7616801151
  C         4.5209376340        0.9390398481       35.8945477011
  N         4.6680956228       -0.4129067432       35.9964006619
  O         4.9772023870       -2.1706869579       34.4361820435
  H         2.5548766488        2.1968202938       17.7081221352
  H         3.0681633927        1.2873541543       19.2177484742
  C         3.5278555488        0.3135126779       17.3766542318
  H        15.3084151987        1.2203878535       22.9194584842
  H        15.9778116296        1.9113475733       21.4371647419
  C        16.3097798692        2.9844074656       23.2679144924
  C        11.2670221254        8.4621153591       13.2486657349
  S         4.0222200668        1.8151909695       37.3708746259
  C         4.5578330292       -1.1408138824       37.2631387052
  H         3.6044477992        0.5829618946       16.3325586906
  H         4.4763547370       -0.1637200457       17.6452943653
  C         2.3956545362       -0.7756613102       17.4928478676
  H        15.7773328728        3.4319919586       24.2085809741
  H        16.7172579237        3.7756913262       22.5922866712
  C        17.6084174407        2.3224710880       23.7011491949
  H        10.6651958756        9.3945437607       13.1907106048
  C        11.8634173247        8.2046799698       12.0435358157
  H         3.7304438585       -0.9069297806       37.9058719915
  H         4.5809133099       -2.1980071218       37.0704801566
  C         5.7221261456       -0.7268965376       38.2696744028
  H         2.4867174545       -1.7139378428       16.8761992025
  H         1.4127688331       -0.3786748117       17.2541922328
  C         2.3465379871       -1.4847889132       18.9073935596
  H        18.1202604041        2.7391028823       24.5179825086
  H        17.2500388305        1.3053294567       24.0549300700
  C        18.5796950857        2.2400884287       22.5123748504
  S        12.4795907671        6.7392633095       11.4915955698
  C        11.8729613807        9.2893505642       11.0602521181
  H         6.1757479336        0.2201371233       37.8763308017
  H         5.3666926853       -0.4865718806       39.2966646704
  H         6.5110268774       -1.5183794369       38.3550420997
  H         1.4351522423       -1.9300615960       19.2617513410
  H         2.3874621071       -0.6412984658       19.5898081378
  H         3.2055651791       -2.0569541710       19.1016767753
  H        19.4610361077        1.7240964887       22.7540701702
  H        18.9351330349        3.1720541553       22.0423093489
  H        18.0855706251        1.5136366823       21.7644318530
  C        12.7803064197        7.5478169822       10.0189257876
  N        12.5324803073        8.8709519170        9.9865946536
  O        11.3187468848       10.4021727642       11.2286598831
  S        13.3137454189        6.7734212651        8.5643986416
  C        12.5531743884        9.6823684195        8.7800077400
  H        12.5031461006       10.6838620277        9.0254699938
  H        13.6011340437        9.3877646016        8.3865323118
  C        11.3954473679        9.3088406691        7.8839098700
  H        10.9783347376       10.1832294059        7.3710442650
  H        11.7122993956        8.6660132309        7.0335421932
  H        10.5831677545        8.8522853651        8.4499499010
  H        -1.7249615376       12.7248104845       17.4320381590
  C        -1.7990308058       13.6564994714       16.8923223461
  H        -0.8087291726       14.0439365844       16.8671940859
  C        -2.5885004174       14.6972215982       17.7572921275
  C        -2.2314188194       13.4698031821       15.4344267697
  C        -2.7754786465       14.1723863744       19.2351825407
  H        -2.2386837188       15.7149944808       17.6106368295
  H        -3.6219633507       14.7574876719       17.5006713514
  H        -3.3418137677       13.4040089318       15.3688337393
  H        -1.9357185392       14.1935055191       14.6882384494
  H        -1.9127766660       12.5198950999       15.0639255098
  C        -1.4746533499       13.9474687495       20.0993186263
  H        -3.3955151081       13.3116141105       19.1419221099
  H        -3.3911481080       14.9032900109       19.8033282648
  C        -1.9063749308       13.5413192744       21.5248782991
  H        -1.0387565845       13.0699726454       19.6335045022
  H        -0.7813221603       14.7710057200       20.1782659575
  C        -0.8284405955       12.7518450947       22.3684930284
  H        -2.7901498397       12.8826219738       21.4751173637
  H        -2.2596768175       14.3948627322       22.0890807555
  C         0.3872773020       13.6067796814       22.7694149248
  H        -1.2347994566       12.2374878890       23.2910372037
  H        -0.3590881690       12.0096496512       21.7258377192
  C         1.5610520775       12.8918046135       23.6030717387
  H         0.8189090659       13.8625045387       21.7476447582
  H         0.1022095718       14.5960035955       23.2444417409
  C         1.9192358782       11.5305146130       22.9765193612
  C         1.1862732944       12.2132289907       24.9071594460
  C         2.8130413812       13.6268986396       23.8141040247
  C         1.7397169678       10.4889879639       23.8373313883
  C         2.4335554242       11.0776460674       21.7757514525
  C         1.3276834950       10.8795628694       25.0522551612
  C         0.6097200070       12.8723062351       25.9866363514
  H         2.4952933730       14.5497087547       24.2885748681
  H         3.3744407387       13.0219269980       24.5677377728
  C         3.6169494830       14.0630817736       22.5678950094
  S         2.1220067385        8.9168582158       23.1486313826
  C         2.6348625178        9.7133623997       21.6970288856
  H         2.6991595683       11.7888973597       21.0012113744
  C         0.8531929709       10.3331394580       26.2197670152
  H         0.4917695795       13.9100855721       25.8806376029
  C         0.1400350636       12.3498862980       27.1433560321
  H         3.1250387692       14.9315330451       22.1129660022
  H         3.9161218712       13.3479281214       21.7973918263
  C         4.9322588176       14.5651352438       23.1963166191
  C         3.0159267551        9.0161898572       20.3897495617
  C         0.2947134178       11.0166992557       27.3234392608
  H         0.9639573979        9.2966609408       26.2797242558
  C        -0.3039371255       12.8161045008       28.3416670491
  H         5.3153492027       13.7620855817       23.7487428233
  H         4.8382884368       15.4027838186       23.8772904413
  C         5.9687112300       15.0093188108       22.2203993584
  C         2.7663512694        7.6854898336       20.0521140001
  C         3.5008411553        9.9011118678       19.3189912326
  C        -0.1724696682       10.3450401806       28.5885383077
  C        -0.4317195946       11.6987710978       29.2222159772
  S        -0.8589323537       14.2868153576       29.0225129189
  H         6.6242501403       15.7339889518       22.6889182052
  H         5.4406162484       15.5975109916       21.3905180660
  C         6.8383883780       13.9008544681       21.6683282316
  N         2.2748500285        6.7378618860       20.9207102246
  C         2.9761007582        7.1522073270       18.7541769561
  C         3.7279856930        9.4326826974       18.0550570451
  H         3.7580966816       10.9634187140       19.4822185045
  C         0.9674328413        9.7098045907       29.4604757637
  C        -1.3377968159        9.4472636861       28.3452075680
  C        -0.7670190871       12.0894015415       30.5167751778
  C        -1.0477036022       13.4549512292       30.5632387647
  H         7.8735498020       14.0941557572       21.7802541272
  H         6.6347641796       13.0284004118       22.3327309132
  C         6.4412835331       13.4315438261       20.2534644305
  S         2.2737863916        5.2294277195       20.1915841414
  N         2.7497647965        5.7482270662       18.7045976955
  C         3.4690134213        7.9994611676       17.7188638342
  H         4.1239714488       10.0693980235       17.3242618224
  H         1.4032121584        8.8537523741       28.9332080099
  H         0.4798216174        9.4189526559       30.3838886567
  C         2.1968455622       10.5883572079       29.8175730137
  H        -1.4040458324        9.1394297571       27.3560892785
  H        -1.3360625622        8.6395031589       29.1224819065
  C        -2.6961613296       10.0970365100       28.5749457242
  H        -0.8548888187       11.3523872446       31.2819206418
  C        -1.4347310630       14.1717117080       31.8291409022
  H         5.6291459911       14.0750212797       19.7983086562
  H         6.0707913022       12.4523692753       20.3525782675
  C         7.6858157207       13.4530051822       19.3848571232
  C         3.6928695399        7.3683679932       16.4948808599
  H         2.7378564267       10.9441160806       28.9403684477
  H         1.9059741452       11.3615856862       30.5053130996
  C         3.1937778669        9.8356006108       30.7091671660
  H        -2.7466932313       11.1483776840       28.1296633708
  H        -3.0100902185       10.0106615475       29.5821057342
  C        -3.7836188672        9.3688134859       27.8096975686
  C        -1.4981507392       15.5513530423       31.9506216973
  C        -1.6183776956       13.3971341810       33.0816359626
  H         8.2434768989       14.3484405427       19.7359997661
  H         8.2160552295       12.5411029326       19.7155630567
  C         7.4379169089       13.4329218023       17.8821108034
  H         3.7634555081        6.2665783166       16.5834155476
  C         4.0431420444        7.7315547978       15.2390619717
  H         2.8405239629        8.8260414640       30.8056761745
  H         3.2894851615       10.2556011067       31.7223545503
  C         4.5913641683        9.7925940003       30.0036535174
  H        -3.4553364793        8.9310514954       26.9453288345
  H        -4.1420735529        8.5345819322       28.2951096565
  C        -4.9004920609       10.2943519293       27.4152695627
  N        -1.2768204013       16.4754608762       30.9256055571
  C        -1.8785538775       16.1604392258       33.1335284678
  C        -1.8639666596       14.0110369776       34.2992915187
  H        -1.6600693002       12.3217576974       33.0698301608
  H         6.3883051409       13.5733185253       17.5524039912
  H         8.1295637394       14.0917739819       17.3143450411
  H         7.7522582763       12.4635525086       17.5289923336
  S         4.3499664829        9.3515716722       14.6211711141
  C         4.1560042096        6.7285985502       14.1887987841
  H         4.4583991615        9.0218029193       29.2642433743
  H         4.8250966107       10.7235629084       29.5229335775
  C         5.7947980772        9.4306499966       30.8851270050
  H        -4.6253723302       11.0996827955       26.6587623150
  H        -5.2657326427       10.9362302043       28.2099308161
  C        -6.1034460196        9.4534107642       26.8815360402
  S        -1.4920617860       17.9961483286       31.5365961899
  N        -2.0838139662       17.5718616416       33.0200579279
  C        -2.0196802144       15.4265134837       34.4177083851
  H        -2.0566447542       13.3639693298       35.0867243405
  C         4.5157495045        8.6831980941       13.0146667408
  N         4.4344575371        7.3636520192       13.0079367796
  O         3.7925816195        5.5253092147       14.2572122412
  H         5.5946170024        9.1599023705       31.9065936150
  H         6.4704170207       10.2997340419       31.0136679716
  C         6.6242194552        8.3000178122       30.2679929252
  H        -6.0417693902        9.1200307473       25.8647230329
  H        -6.1364190720        8.4971233138       27.2968864669
  C        -7.3755321673       10.2657519093       27.1633984319
  C        -2.3363633223       16.1503905508       35.5652642082
  S         4.6665064286        9.5735321106       11.6130863110
  C         4.4382028011        6.6669513235       11.7578377485
  H         6.5095765410        8.4938929927       29.2643508254
  H         7.6260121131        8.3242748579       30.6610733397
  C         6.1187151657        6.9220402775       30.7290856720
  H        -7.2608903667       11.2728702727       26.8459114050
  H        -7.4016887775       10.3840960707       28.2558135165
  C        -8.7221203915        9.7574458699       26.7442638691
  H        -1.9960604806       17.2184507811       35.4737240344
  C        -2.9092371244       15.8198844410       36.7305809771
  H         5.2020383209        7.1684707482       11.1041523049
  H         4.7938144767        5.6679260779       11.7962664442
  C         3.0688251304        6.7367419472       11.0597393678
  H         6.1182817519        6.2170397113       29.8927033108
  H         5.0642923199        7.0356276770       30.9792365584
  C         6.7691403836        6.3035164929       32.0153798084
  H        -8.8226677160        8.7709094829       27.0752031085
  H        -9.6215470552       10.3108867102       27.1306846771
  C        -8.8581149713        9.7777535086       25.2627579526
  S        -3.6541465473       14.2728579071       37.0863243275
  C        -2.9738992523       16.8300191457       37.7890008458
  H         2.1941674395        6.2967989635       11.4608171194
  H         2.7673264740        7.7930712743       10.9316973748
  H         3.1124490225        6.3012862050       10.0033592625
  H         6.8695971221        7.0263636180       32.7724736813
  H         7.7614344186        5.9121863535       31.7458172520
  H         6.1686771346        5.4480879447       32.2642808891
  H        -8.4031183945        8.8688522565       24.8923761226
  H        -8.3525847606       10.6123652091       24.8313295643
  H        -9.9126398668        9.7069901524       24.9406221327
  C        -4.0867878967       15.0145998787       38.6301631296
  N        -3.7935564473       16.3431131415       38.7544555804
  O        -2.5410312105       17.9642265234       37.6498786814
  S        -4.7669231666       14.1836312360       40.1025607092
  C        -3.9185435423       17.0947808197       39.9981000149
  H        -4.0791050571       18.1838776160       39.7989904506
  H        -4.7637356737       16.7672917925       40.5416978745
  C        -2.6494421663       16.8248937706       40.8117280463
  H        -1.8484925730       17.5592300984       40.4875105270
  H        -2.9048777479       16.9160903687       41.9110060261
  H        -2.2440734257       15.8070101132       40.6101382756
