352
 i =    94700, time =    94700.000, E =        24.9455897632
  H        11.3025768822        4.7572706041       31.4759728374
  C        11.2238305081        5.7782934234       31.9207274498
  H        10.1502245041        5.9987200028       32.0858422575
  C        11.9264235509        6.7036202582       30.9939473854
  C        11.7854608399        5.7802765865       33.2705952897
  C        12.0816271252        6.1004714016       29.5908138196
  H        11.4122725289        7.6035985927       30.8820596915
  H        12.8351832267        7.0285475765       31.3418155315
  H        12.4240351873        6.6721658271       33.4017932357
  H        11.0008973757        5.9705081286       33.9425883216
  H        12.4476040172        4.9371170539       33.5119673622
  C        10.7965643752        6.1521096241       28.7924682410
  H        12.3009138722        4.9974973908       29.6178595648
  H        12.7602243891        6.5849423914       28.9328495209
  C        10.9968693098        5.9434729355       27.2828771797
  H        10.1629677433        5.3860478820       29.1784526259
  H        10.3754465275        7.1474135609       28.9687960227
  C         9.7930084976        5.2534838478       26.4977201406
  H        11.5238477887        5.0127680475       27.3633327843
  H        11.5770799238        6.7492169172       26.7455803407
  C         8.6063008066        6.1351215975       26.0485941906
  H        10.1912425690        4.7228426867       25.6402497843
  H         9.3233442064        4.4690980331       27.1676410965
  C         7.5105626749        5.3463580506       25.2980527439
  H         8.1251394045        6.5504818616       26.9075632322
  H         8.9566135910        6.9835001187       25.4771179499
  C         7.1580614002        4.0333536075       26.0417497819
  C         8.0802411743        4.6268080038       24.1323370232
  C         6.2873760884        6.2165341777       24.7821554046
  C         7.4186395808        2.9189424135       25.2647205999
  C         6.6781120406        3.7437565812       27.3179759534
  C         8.0390973741        3.2829296453       24.0967106931
  C         8.5554846298        5.2833557071       23.0370911875
  H         5.8616742182        5.4779750898       24.0736740900
  H         6.5647575662        7.1303785681       24.2442039547
  C         5.4146485926        6.6979105385       25.9316542809
  S         6.9429304369        1.4634085888       26.0528669526
  C         6.4695588951        2.4140487012       27.4634507170
  H         6.7194873769        4.4995559577       28.0949388868
  C         8.4966627083        2.6526473280       22.9811542281
  H         8.4541404966        6.3276268126       23.1306225709
  C         9.0832080245        4.6579599987       21.9429033973
  H         5.6909292168        6.1299983655       26.7662262493
  H         5.6090380020        7.7201055033       26.1015720268
  C         3.9444993411        6.3938854911       25.5910881391
  C         6.1620588129        1.7510170708       28.7430011014
  C         9.0216209077        3.3137805826       21.8238730249
  H         8.4725449558        1.5508473128       22.9931788167
  C         9.5902219665        5.0288481870       20.7332001623
  H         3.9897745809        5.4509232268       25.0715697670
  H         3.6198467725        7.1200846580       24.8786282699
  C         3.0297916282        6.3204372783       26.7772902817
  C         6.1779968888        0.3418713466       28.9800862489
  C         5.5942582154        2.5339357936       29.8702906671
  C         9.4966069252        2.6407308174       20.5264443022
  C         9.7368777749        3.9651340981       19.8780424440
  S         9.7748208494        6.5652067157       20.0379276957
  H         2.0272419312        6.5001672756       26.3916651631
  H         3.3686193179        7.1006059687       27.4609405677
  C         3.1137318076        4.9061519582       27.4660704702
  N         6.4427030396       -0.6299499355       28.0340318548
  C         6.0205384263       -0.2320715974       30.2197694253
  C         5.3987521173        1.9333065286       31.1163621289
  H         5.2388627073        3.5318712653       29.6253025859
  C         8.4326660478        1.8397710435       19.7673307544
  C        10.8201558469        1.8558211205       20.5221178545
  C        10.1310176465        4.4545004453       18.6218795586
  C         9.9897640485        5.7805575478       18.5606528587
  H         2.9063144285        4.1313296045       26.7513703555
  H         4.1178837562        4.8214567896       27.7906160653
  C         2.1281103967        4.8202304239       28.6127901390
  S         6.5822512929       -2.1533298744       28.6678184370
  N         6.2572116300       -1.6554029428       30.2041328247
  C         5.5464109707        0.4968459546       31.3309435736
  H         4.9636559403        2.5700996512       31.8320787948
  H         8.3023081891        0.9177603964       20.3397564830
  H         8.9450772310        1.4243986691       18.8482895827
  C         7.1091002933        2.5901449392       19.4947623809
  H        11.1275331908        1.8353414582       19.4387185278
  H        10.6301550750        0.8112548247       20.8867675863
  C        11.8897535695        2.5825213122       21.3769169983
  H        10.2691831951        3.7793012133       17.8207067325
  C        10.1585024611        6.6524959393       17.3035336982
  H         1.7700337677        3.7796142088       28.7025342266
  H         1.2570121044        5.4099292434       28.3133519885
  C         2.7351998114        5.3526595949       29.8592682591
  C         5.4330060552       -0.1802545858       32.6094358432
  H         7.3746242356        3.3313540288       18.7555245879
  H         6.7703162101        2.9839506800       20.5030578085
  C         6.1147295630        1.6257896355       18.9228518448
  H        11.5767043637        3.0117196935       22.3037176079
  H        12.1757475525        3.4365177485       20.7600834233
  C        13.1340729426        1.7090673410       21.7237635913
  C        10.1982181921        8.0575519773       17.1708084424
  C        10.5402371837        5.8960091228       16.0374060137
  H         3.3515955847        4.6017304702       30.3674352584
  H         3.4637095805        6.0970572792       29.5277238701
  C         1.6987394771        5.9110681767       30.8501180158
  H         5.7036503121       -1.2411102788       32.5702210350
  C         5.0840101619        0.3201547176       33.8480007614
  H         5.8576531727        1.0115732015       19.7390914953
  H         6.5263934983        1.0480950143       18.0984012002
  C         4.7726195401        2.3523203867       18.4378560328
  H        12.7740811122        0.9715635988       22.5342837151
  H        13.5637637917        1.1636752604       20.8401629747
  C        14.3083461955        2.5896371521       22.2059037351
  N         9.8494153235        8.9540481202       18.2120831616
  C        10.6298269030        8.7358678475       16.0556428020
  C        10.9171076446        6.5779287921       14.9024550673
  H        10.4436659762        4.8445859546       15.9918359826
  H         2.0650681630        6.2720153984       31.7941726836
  H         1.1209141576        6.6973748173       30.4024146808
  H         1.0606456804        5.1134661699       31.3111090459
  S         4.6994969325        1.8398680950       34.3536018966
  C         5.1431158428       -0.6409148632       35.0030881998
  H         4.6638089782        3.3858689376       18.7604271110
  H         4.9683989751        2.4198983066       17.3242735720
  C         3.5634452927        1.5040128234       18.8183339600
  H        13.8940013685        3.1270461254       23.0204965720
  H        14.5790050370        3.3907942013       21.4887346132
  C        15.5833840833        1.7904903662       22.4932287525
  S        10.0738328904       10.5222679713       17.6252410861
  N        10.6210098589       10.1553705202       16.2014435289
  C        11.0434199346        8.0511220752       14.8859165348
  H        11.1272835933        6.0089741989       14.1146809497
  C         4.7017341420        1.2089649249       35.9894733719
  N         4.6761968478       -0.1028510891       36.1362300852
  O         5.3135691590       -1.8602452993       34.7693167835
  H         2.6678027937        2.0496870791       18.5691940710
  H         3.5591585356        1.5282774799       19.9572597540
  C         3.5427297390        0.0684949568       18.1893382195
  H        15.4244869189        0.7468337933       22.5716297438
  H        16.3178653646        1.9932965444       21.6526493447
  C        16.1378276146        2.3369170639       23.7169559004
  C        11.3973022183        8.8788526869       13.7765935498
  S         4.0896871841        2.1037799971       37.3055952268
  C         4.6075855453       -0.8180842354       37.4200472033
  H         4.4598512348       -0.2120442500       17.7544812774
  H         3.4297906920       -0.6751876920       18.9667146394
  C         2.5013550794       -0.0035738415       17.1389868291
  H        15.3706045511        2.2010481426       24.5045503859
  H        16.2062061819        3.3756536240       23.6484212427
  C        17.5591393111        1.8912700204       24.1291401982
  H        11.1901079689        9.9886543320       13.8962034145
  C        11.7965116594        8.5585061958       12.5006696485
  H         3.9408556734       -0.4570517206       38.1988219278
  H         4.2688588403       -1.8368220984       37.2284845300
  C         6.0308784978       -0.7774166040       38.0833195677
  H         2.9771004261        0.6034899168       16.2959329673
  H         1.5245315568        0.3546506434       17.5481555944
  C         2.2498599523       -1.4775832615       16.7628180110
  H        17.8240929632        2.5499306283       24.9291988139
  H        17.5365131519        0.9230022191       24.6327801974
  C        18.6198809738        1.8550485043       23.0413300152
  S        12.1771707287        7.0273424086       11.8146267734
  C        11.8936557678        9.7231454675       11.5705743194
  H         6.1277079431        0.0003997309       38.8869810376
  H         6.3773147215       -1.8111984702       38.4794735140
  H         6.9130172930       -0.5860931094       37.3457151242
  H         1.9605719217       -1.9582609080       17.6614742776
  H         3.1038471014       -2.0080617118       16.4115428383
  H         1.4751876482       -1.5040740871       16.0076131735
  H        19.5456064464        1.5071307755       23.5025615740
  H        18.8319431444        2.7564612266       22.5129514415
  H        18.3491159519        1.0825471022       22.3180211016
  C        12.4050657700        7.9188623691       10.2742302777
  N        12.1803551983        9.2288740986       10.3337151605
  O        11.6563913555       10.8875542855       11.8582380810
  S        13.0366399976        7.2142449935        8.7962631572
  C        12.3689346688       10.1315404849        9.2174507813
  H        12.6572449999       11.1074230554        9.5131097409
  H        13.1059420840        9.8229743684        8.5180691360
  C        11.0793663131       10.1778221482        8.4191027462
  H        10.9536845824       11.0113274071        7.7486445860
  H        11.0911922962        9.3161549313        7.7237388672
  H        10.2233053990       10.1612964683        9.0724668155
  H        -3.5210763599       13.9537642787       16.4427226436
  C        -2.4359460080       14.0220173334       16.6549642057
  H        -2.0138870160       13.0844617278       16.8950029653
  C        -1.9874270424       14.8419037630       17.8339179367
  C        -1.8272256513       14.4886606541       15.2728447765
  C        -2.3342970961       14.2933343879       19.2151764596
  H        -0.9134442781       14.8777452286       17.7378568496
  H        -2.2902591085       15.8171398881       17.8423257126
  H        -2.3944505872       14.2297532439       14.3487782114
  H        -1.6284273835       15.5036096671       15.2003522345
  H        -0.7942905399       14.0230210840       15.1662523508
  C        -1.2593358625       13.6821070828       20.1219655045
  H        -2.9370456343       13.4307865311       18.9718521042
  H        -2.9887013426       14.8496201250       19.8981116807
  C        -1.7594096119       13.7271583421       21.5618465726
  H        -1.0202831165       12.6360882806       19.7952333735
  H        -0.3751574652       14.2228749521       20.0055748881
  C        -0.9575118816       12.8400670439       22.4593154215
  H        -2.7683444238       13.5007493756       21.7655342892
  H        -1.7610364283       14.7196972375       22.0387075499
  C         0.3202098588       13.6331799971       22.8751143331
  H        -1.6074484903       12.6356417755       23.3418828689
  H        -0.8603905372       11.8454377393       21.9837578448
  C         1.3517986511       12.8081558004       23.5528404742
  H         0.8212689236       14.2433430045       22.0826748716
  H         0.0160611312       14.4303316076       23.5268048905
  C         1.6978110866       11.4898667301       22.8274646803
  C         0.7767497224       11.9797777730       24.6754977578
  C         2.6707850995       13.4872220498       23.9890133886
  C         1.5664594200       10.3029210400       23.5183274214
  C         2.2407318311       11.2294638738       21.5606407766
  C         0.9871753002       10.6442779768       24.7516683981
  C         0.4606338934       12.6398400501       25.8755751250
  H         2.5837109991       14.1688795189       24.8212659114
  H         3.2548503829       12.6741613368       24.4470385333
  C         3.5424747228       14.1261115559       22.8667521498
  S         2.1156449812        8.9056703059       22.7416560214
  C         2.4774774262        9.8850519083       21.3333733886
  H         2.4458347655       12.0923944385       20.9455982183
  C         0.5647553671       10.0054994945       25.8695575252
  H         0.4483040702       13.6732817525       25.9270856361
  C         0.1653296176       12.0096840603       27.0353283629
  H         3.1196294086       15.1035715746       22.6541953542
  H         3.5041654072       13.5787152615       21.9305105204
  C         4.9095403325       14.5387083687       23.4541492150
  C         2.9695497241        9.3070522696       20.0741027638
  C         0.2399325289       10.6771154398       27.0987329000
  H         0.6414304292        8.9214206831       26.0168291029
  C        -0.1875556238       12.3711323092       28.3213162441
  H         5.3266704550       13.7448324656       24.0549066427
  H         4.7662695079       15.3460223565       24.1320220828
  C         6.0376880943       14.9217529971       22.4278445957
  C         2.8516077334        7.9219831843       19.6960078904
  C         3.3498123819       10.1757793617       18.9463614090
  C        -0.0385889629        9.9642482605       28.3859560262
  C        -0.3439916395       11.3068418083       29.1531189812
  S        -0.4521039103       13.9125124383       29.1243255625
  H         6.9273201774       15.2714011538       22.9853210952
  H         5.7575921233       15.7563710567       21.8161290529
  C         6.3880489043       13.5987552209       21.7771794949
  N         2.4977103926        6.8723510339       20.4855410487
  C         3.1646850208        7.5148778763       18.4361818563
  C         3.6801224637        9.7890854973       17.6739503949
  H         3.3751552816       11.2204688435       19.2141570086
  C         1.1604369524        9.2125928443       29.0673369909
  C        -1.3188450491        9.0773600765       28.2440725238
  C        -0.6527833080       11.6206746569       30.4766150626
  C        -0.7996792801       12.9795319028       30.5872647982
  H         7.4331207846       13.4123196376       21.8993076836
  H         5.7980580854       12.7635504138       22.0933223355
  C         6.1468115144       13.6818780796       20.1810558144
  S         2.4200909003        5.5082153846       19.6364780789
  N         3.1019982844        6.1308058783       18.3248816101
  C         3.5797441089        8.3337915591       17.3245447661
  H         3.9486009888       10.5432111339       17.0035219542
  H         1.4217845119        8.4079680360       28.3839359322
  H         0.7674493173        8.7899381117       29.9709611276
  C         2.3041943203       10.0642549423       29.4233909827
  H        -1.1079758153        8.2738457937       27.5511894879
  H        -1.6090537355        8.5788876846       29.1790071668
  C        -2.5484592418        9.8361938825       27.8116548650
  H        -0.8630272205       10.8117595264       31.1923642281
  C        -1.1811558118       13.6790199084       31.8777549658
  H         5.6641336219       14.6368110511       19.9402077198
  H         5.4784422836       12.8609534279       19.8298573321
  C         7.5505469967       13.6641748398       19.5042981976
  C         3.7479727112        7.7445555041       16.0313233512
  H         2.8294684316       10.3760540396       28.5639074722
  H         2.0622201363       10.9226213856       30.0999493592
  C         3.2928742397        9.2164176975       30.1387917657
  H        -2.2987594601       10.4880893081       26.9717942606
  H        -2.6944891442       10.5545226684       28.5887863990
  C        -3.7316950308        8.9652912406       27.4882232479
  C        -1.2684532438       15.0370252573       32.0770485409
  C        -1.5053412547       12.8980496024       33.0715023870
  H         8.1644160780       14.4630943853       19.9329399441
  H         8.0640637154       12.6798385661       19.7188738415
  C         7.4792475813       13.8053827886       17.9952347188
  H         3.5839597148        6.6490270673       16.1268655471
  C         3.9517139042        8.2106313100       14.7420521831
  H         3.6464767215        8.3991750553       29.4427693637
  H         2.8469815261        8.8359947326       30.9646204815
  C         4.5659522032       10.0110826435       30.4021202399
  H        -3.4987563563        8.4356176639       26.5229230744
  H        -3.7299404655        8.2221840250       28.2284175529
  C        -5.0640308289        9.6969410940       27.3724773645
  N        -1.1603612522       16.0088877691       31.0330856174
  C        -1.6879005876       15.6361704727       33.2351107100
  C        -1.7728037208       13.4702821268       34.3150456386
  H        -1.4432593288       11.8242328813       33.0043284984
  H         8.3842164878       14.2318485715       17.5785710331
  H         7.3311478966       12.8512958515       17.4914928113
  H         6.7442907769       14.5464207169       17.7625047706
  S         4.2457844472        9.8534073898       14.2863258713
  C         4.1612229683        7.1736898660       13.6588735238
  H         5.1891357624        9.9805588896       29.5155281456
  H         4.2624389289       11.0621469804       30.6335991529
  C         5.3784729686        9.5651235668       31.5576123758
  H        -4.9562425245       10.7368190489       27.8380996414
  H        -5.8464065823        9.0130597805       27.8680116927
  C        -5.3995485440        9.9079443776       25.8620771892
  S        -1.3296239476       17.4808941314       31.6397544904
  N        -1.7577587616       17.0295317769       33.1185440614
  C        -1.8445147652       14.9123962015       34.4391621283
  H        -1.9018285858       12.7870887192       35.0889732507
  C         4.3030423236        9.2512583187       12.6574279216
  N         4.3979689000        7.9121395455       12.5382763242
  O         4.0037303822        5.9628751247       13.8059798516
  H         4.6233492657        9.2460256193       32.2999751926
  H         5.9207762885       10.3940358734       32.0904013829
  C         6.3068039488        8.3792037165       31.2200748469
  H        -4.4947648857       10.1273114770       25.3376799521
  H        -5.6888440191        8.9885281080       25.4076919535
  C        -6.3911890683       11.0522622385       25.6542901994
  C        -2.2678968826       15.6351049120       35.5923940997
  S         4.9330562173       10.2113212199       11.3102260213
  C         4.5302090539        7.1269152847       11.3318892104
  H         5.9943075828        8.0567008829       30.3047070701
  H         7.3188475072        8.7826713254       31.1386013062
  C         6.1323374471        7.2319410238       32.2353623164
  H        -6.3846792687       11.2129705518       24.5942999031
  H        -5.9459416600       11.9483152833       26.1858591155
  C        -7.8007344774       10.8823766690       26.3395397309
  H        -2.0855515071       16.6949211960       35.5367397721
  C        -2.7335499875       15.2099685155       36.8061920871
  H         5.0350733218        7.7087097360       10.4640146435
  H         4.9980680208        6.2255071548       11.5690642476
  C         3.1193429351        6.8604693923       10.7687771814
  H         5.0287111808        7.1670854117       32.5468915848
  H         6.6185477615        7.5520961153       33.1545031756
  C         6.7553644045        5.8625986779       31.8321214817
  H        -7.6284900254       10.3029431929       27.2413602157
  H        -8.3044221363       11.8476192965       26.4799644364
  C        -8.7694040031       10.0748703084       25.4177187486
  S        -3.3653798928       13.6535506312       37.0831732975
  C        -2.9250416948       16.2873720355       37.7976749429
  H         3.1469678991        6.5734805373        9.7159279436
  H         2.5868641817        6.1001308959       11.3192800154
  H         2.4981953423        7.7298903899       10.7196646279
  H         6.2615889563        4.9806050950       32.2397923705
  H         7.8087888646        5.9506494598       32.0221749303
  H         6.6464009018        5.7419951033       30.7298095231
  H        -8.3005421044        9.1165277572       25.0123519738
  H        -8.9943359968       10.6205210913       24.4856094524
  H        -9.7585689044        9.8194567345       25.9354855984
  C        -4.0183708298       14.4269728203       38.5690107485
  N        -3.7048412721       15.7654382598       38.7152589167
  O        -2.5290706752       17.4189302567       37.6910354544
  S        -4.6424298142       13.5431225594       40.0299785199
  C        -3.9112667919       16.5268502194       39.9596140571
  H        -4.2817808981       17.5036793409       39.6673215391
  H        -4.6891601012       16.1550626272       40.6376980211
  C        -2.6436988781       16.4273803678       40.7592890113
  H        -1.8622039505       17.1071209906       40.4586603013
  H        -2.8910041163       16.5757160056       41.7848175876
  H        -2.1847706296       15.3977725100       40.5366014841
