352
 i =    82700, time =    82700.000, E =        25.0947706939
  H        10.3801486749        6.8450260883       31.8595818540
  C        11.3803623507        6.3353828391       31.7957945270
  H        12.0722218786        7.1337581334       31.8140662622
  C        11.6824467313        5.8104110231       30.3995576834
  C        11.7901197070        5.4377447143       32.9301468378
  C        10.5731610538        4.9110468947       29.9390621764
  H        11.9381416019        6.5846647948       29.6961787713
  H        12.5771693586        5.1847701243       30.3638257326
  H        12.6720950823        4.9087795625       32.6856796147
  H        11.8669316095        6.0751167633       33.8096058228
  H        11.0627759326        4.6775982331       33.2302703823
  C         9.9669884091        5.4817545717       28.6068277961
  H         9.7738226009        4.8818402936       30.7010787592
  H        10.9717298996        3.9539510849       29.6296571457
  C        10.8064378005        5.7026710639       27.4247613654
  H         9.0811077376        4.9587534514       28.2631854209
  H         9.5833576923        6.5015251889       28.8091779214
  C        10.0766837454        5.3333899718       26.1656885610
  H        11.5246283037        4.9063181599       27.3497293198
  H        11.2845172501        6.6995254145       27.4046359546
  C         8.8231286193        6.1238839544       25.9645256308
  H        10.7875746786        5.1794701197       25.3541028030
  H         9.8034830561        4.3060702921       26.2017480265
  C         7.7787068745        5.1915407339       25.3166792326
  H         8.4927204060        6.6184023766       26.8191644058
  H         9.1670102906        6.8749301193       25.2696514269
  C         7.3918877420        3.8185458906       26.0272493463
  C         8.1745571012        4.4705235320       24.0631061449
  C         6.5366654470        5.9870078107       24.9354845868
  C         7.3870692629        2.7709393962       25.1114858519
  C         6.9720660861        3.3940185642       27.2971829130
  C         7.9617749540        3.1464594208       23.9038610596
  C         8.6312257616        5.1920110025       22.9446801988
  H         6.0221163491        5.4860563843       24.2038147517
  H         6.7012572120        6.9176643260       24.4302892024
  C         5.5565666163        6.3205212356       26.0292041286
  S         6.9597202310        1.2531433662       25.8151462369
  C         6.6638647714        2.0509632925       27.3195450732
  H         6.8810373504        4.0711708853       28.0814735372
  C         8.2473595769        2.5530671514       22.7026765817
  H         8.7546928243        6.2562545263       23.0155223747
  C         8.8969234917        4.5661496008       21.7192479137
  H         5.8737567803        5.7479431098       26.8974805543
  H         5.7940508871        7.3243423617       26.2858837092
  C         4.0489064254        6.1406925365       25.6606877059
  C         6.2761217658        1.3490666512       28.5993096917
  C         8.8487587246        3.2560321397       21.6036964091
  H         8.1484005014        1.4778500816       22.6426677858
  C         9.3585882114        4.9665676153       20.5107126592
  H         3.9684790858        5.0750665047       25.3966564217
  H         3.8310007676        6.8205119180       24.7967632089
  C         3.0063962283        6.5367896541       26.7001092237
  C         6.2104601492       -0.0120283570       28.8660870144
  C         5.8934948903        2.2136763868       29.7607413668
  C         9.1542269652        2.5783950479       20.3024169309
  C         9.4752205041        3.9221224953       19.6483672605
  S         9.6871001341        6.4787907960       19.8170705141
  H         2.1193699471        6.8745306425       26.1631873771
  H         3.2706379660        7.3561608798       27.2299277267
  C         2.7715578505        5.2894409518       27.5624444346
  N         6.6803797184       -0.9759876344       27.9473935119
  C         5.8560793677       -0.5257265207       30.0774533252
  C         5.3206310527        1.6661851283       30.8634378664
  H         6.0255112794        3.2781849730       29.7742414505
  C         7.9119287770        1.9088764875       19.5963602196
  C        10.3678177527        1.5954535788       20.5540203199
  C        10.0205131931        4.3432297387       18.4294340505
  C        10.0517158465        5.7133633243       18.3536794987
  H         2.5440706158        4.4329391450       26.8909273763
  H         3.7649386642        5.0366029290       27.9490210565
  C         1.6048755396        5.4705683116       28.5846365543
  S         6.6282880315       -2.4215312096       28.6631557416
  N         5.9744501751       -1.9097814536       30.0954578355
  C         5.3940050705        0.2530744253       31.1794716004
  H         5.1013438933        2.3268384265       31.7182827762
  H         7.4853314120        1.1512815173       20.3090357189
  H         8.2644280355        1.3438842635       18.6494556843
  C         6.7735814236        2.8752189000       19.2899331958
  H        10.6927504437        1.1834163894       19.6137711355
  H        10.1260237037        0.7076992684       21.1449661555
  C        11.5588761929        2.3329506136       21.1769546199
  H        10.1969365083        3.6172805456       17.6834493262
  C        10.3748555723        6.5421515906       17.1600894893
  H         1.1528756984        4.5560718620       28.9669807218
  H         0.7832701653        6.0293182740       28.1584599312
  C         2.0223217535        6.1899605801       29.8972682832
  C         5.0476462902       -0.3625020074       32.4516362821
  H         6.9496622110        3.4328846884       18.3835213814
  H         6.6937906825        3.6127630883       20.0481640055
  C         5.3857283927        2.1832629976       19.0592323775
  H        11.3297922380        2.8168638572       22.1329951322
  H        11.7667355967        3.1241412271       20.4442634868
  C        12.7608657036        1.3927589915       21.2910562447
  C        10.4477032189        7.9403029160       16.9843681384
  C        10.8430226052        5.8156743573       15.9933185797
  H         2.9065730558        6.7203550684       29.5700591972
  H         1.2271109306        6.8508943434       30.2875974457
  C         2.5860507817        5.1395346304       30.8890542214
  H         5.1494877015       -1.3769682238       32.2987066299
  C         4.6845680981       -0.0168369017       33.7192898557
  H         4.5807172207        2.8144588978       18.8955597549
  H         5.0805971752        1.6251678503       19.9566448792
  C         5.4772648131        1.2056168345       17.8985100063
  H        12.5992110085        0.9445870014       22.2461063139
  H        12.6985993848        0.6611361803       20.4659337902
  C        14.0969695636        2.1610010901       21.4484043369
  N        10.1644967448        8.9082467505       17.9941518844
  C        10.7951306540        8.5759415951       15.8194634217
  C        11.1582888485        6.4522733962       14.7634358071
  H        10.6628575393        4.7664439286       15.9345953125
  H         2.3061974302        4.1390285033       30.6191343239
  H         3.6329252667        5.3314149129       30.9124984553
  H         2.3419588251        5.4156401248       31.9026957669
  S         4.3750806410        1.5436615685       34.2912645057
  C         4.7212119776       -1.1232442651       34.6953278130
  H         5.9161495297        1.8458131620       17.1198196984
  H         6.0888807775        0.3579289370       18.0747000922
  C         4.1697038014        0.5382649982       17.4067449413
  H        13.8740354963        3.2193749143       21.6614394634
  H        14.5711477785        2.0157714103       20.4979535938
  C        14.9939458898        1.6402452286       22.6130952130
  S        10.0302873325       10.4144406382       17.3601933595
  N        10.7027051170        9.9369677113       15.9403133010
  C        11.1676333839        7.9251739836       14.6421283899
  H        11.3205363689        5.7442693381       13.9468702491
  C         4.1369276124        0.7314446347       35.8604603426
  N         4.3842425324       -0.5759194466       35.8804777365
  O         4.9297089248       -2.3072825595       34.3951519220
  H         4.3893082327        0.1829947851       16.3506365714
  H         3.3447197054        1.2765412809       17.4553299133
  C         3.6567193868       -0.5641879188       18.3007886332
  H        14.3321607111        1.3957448898       23.4193638035
  H        15.4640042597        0.7094767119       22.3295505724
  C        15.9831060618        2.7291956167       23.1663538568
  C        11.4165545262        8.7244418559       13.4910434558
  S         3.9673422851        1.6209511169       37.3442535753
  C         4.5340914992       -1.3159729009       37.1302805416
  H         4.0540929710       -1.5363128139       17.9654352695
  H         3.9337201818       -0.3369769276       19.3053111737
  C         2.2097668767       -0.7583081144       18.1597452290
  H        15.4924697918        3.4329208202       23.7977552938
  H        16.2865892887        3.3158872087       22.3143596677
  C        17.2262476380        2.1458884520       23.7718152081
  H        11.3652336216        9.7306542947       13.6852841331
  C        11.9255780539        8.4415610376       12.2565547240
  H         3.8374132179       -0.9383070694       37.8805380403
  H         4.1842243499       -2.3659056080       36.9058787899
  C         5.9829361947       -1.2789675707       37.7768080153
  H         1.6789916695        0.1121061924       17.7647335264
  H         1.8378639136       -0.8630336439       19.2316461903
  C         1.8383289139       -1.9637765254       17.2146362594
  H        17.8640091283        2.8522146510       24.2441124214
  H        17.0718574391        1.2323190019       24.5003154677
  C        18.1802937089        1.6037387616       22.6441007680
  S        12.4841705844        6.8568503766       11.7854688835
  C        12.0342314671        9.4462692671       11.2167209774
  H         6.6800061125       -1.5993236976       37.0042505564
  H         6.1933318381       -0.2478813200       38.1146419644
  H         5.8873085382       -1.8169422959       38.6735253196
  H         0.8260453446       -1.9776511883       17.0193754023
  H         2.1172084443       -2.9405916616       17.5599155893
  H         2.2772742961       -1.7366317486       16.2497363049
  H        18.5647760926        2.4450915870       22.0354612414
  H        17.6978259065        0.8842834176       21.9635427916
  H        19.0078292023        1.0239306963       23.1236737929
  C        12.9880364289        7.5931263089       10.2925942906
  N        12.6803945537        8.9388189943       10.1823090166
  O        11.6945411869       10.6052837917       11.3997540192
  S        13.6260639632        6.6918121459        8.9125984768
  C        12.8876646887        9.6949535532        8.9635050595
  H        12.9459446104       10.7843009668        9.1969449893
  H        13.8223522434        9.4478345657        8.4455824047
  C        11.5846159759        9.6494680784        8.2192867464
  H        10.6745658045        9.5082103433        8.8075861319
  H        11.5650171917       10.5559870389        7.5233509136
  H        11.6681087759        8.8299194220        7.4366073575
  H        -3.3600306872       14.5985408469       16.6879515233
  C        -3.0255384915       13.5222803358       16.7121722408
  H        -3.8812584956       12.9047564342       16.9164606542
  C        -1.8305130328       13.4212962496       17.6065404172
  C        -2.6102698562       13.3160230522       15.2642986208
  C        -2.2737362933       13.2337162633       19.0556662378
  H        -1.2672765664       12.5649005679       17.2559414518
  H        -1.2395644943       14.3269682426       17.4316493414
  H        -1.6411116936       13.7694140911       15.0922444581
  H        -2.5838792225       12.2716136338       14.9635001576
  H        -3.2618626864       13.8351111678       14.5592093460
  C        -1.3592680248       13.8719611974       20.0523502996
  H        -2.5262742540       12.2551052334       19.3091846073
  H        -3.1784053042       13.8573034637       19.1825309198
  C        -1.8507921462       13.6575588729       21.4531859043
  H        -0.3503769381       13.4296323524       20.0974581922
  H        -1.2294518370       14.9050010141       19.7712219270
  C        -0.8839986796       12.8460640007       22.2843163818
  H        -2.7320476338       13.0903006344       21.3223468658
  H        -2.0641736878       14.5879686658       21.8614970833
  C         0.1836373794       13.8470861851       22.8037385877
  H        -1.4774383195       12.4719129280       23.0923456759
  H        -0.5830039410       11.9559010364       21.7560293801
  C         1.4335726291       13.1038070696       23.4897115086
  H         0.5961629253       14.2755642619       21.9220582742
  H        -0.2641444617       14.5802837117       23.4254038181
  C         1.8054189150       11.8139119723       22.6649928980
  C         0.9171284805       12.2800262883       24.6485656433
  C         2.6958907333       13.9783683179       23.5200712839
  C         1.4337463680       10.7103799889       23.3685047313
  C         2.3385271828       11.5300474896       21.3645438319
  C         0.8332341919       10.9932581458       24.5976325565
  C         0.2786237782       12.8173518057       25.7203218030
  H         3.0422501930       14.3001667077       22.5377394292
  H         2.5704408407       14.9741472052       24.0064259029
  C         3.9083784202       13.1592562602       24.0515826493
  S         1.9920681575        9.2550615768       22.5838454503
  C         2.5064756855       10.2167096312       21.2064646540
  H         2.5583389845       12.3127582747       20.6886533357
  C         0.3213920315       10.2890296499       25.6649189896
  H         0.2874865033       13.8266592819       25.7576195413
  C        -0.1079186140       12.1575420325       26.8154874613
  H         4.1863415726       12.4419199521       23.2785664853
  H         3.6392133304       12.6722316165       24.9640599553
  C         5.1132025635       13.9644630550       24.3691534988
  C         2.8898516596        9.4834208986       19.9782179993
  C        -0.1253227098       10.8523321041       26.9082022757
  H         0.3208688913        9.2402781835       25.4886611623
  C        -0.5703565874       12.4878748182       28.0742813462
  H         5.7486708579       13.3051794378       24.9992874231
  H         4.7418847804       14.8500477011       24.9005719146
  C         5.9176267381       14.4079573885       23.1591956049
  C         2.9197877920        8.0780173478       19.7429098591
  C         3.3157753046       10.3323051686       18.8519842045
  C        -0.4419791910       10.0846506768       28.0398782831
  C        -0.7781022256       11.3664254762       28.8439649701
  S        -0.7978767343       13.9121851397       28.9038891793
  H         6.5609087949       15.2091675018       23.4903403394
  H         5.2227066368       14.9447960030       22.5271408930
  C         6.6840395401       13.3156512698       22.5827296779
  N         2.6663363937        7.0598893640       20.6836260195
  C         3.2483450151        7.5516048185       18.4931326847
  C         3.6844637681        9.8258686780       17.5943806349
  H         3.3126842450       11.4684695758       18.8534562742
  C         0.7438883360        9.3724460190       28.7296999291
  C        -1.6719708066        9.2102427236       27.9619047473
  C        -1.1303931055       11.6328125595       30.1559552891
  C        -1.2100867812       12.9678253687       30.3971895539
  H         7.3500776252       12.9629196903       23.4196427012
  H         6.0666603519       12.4493013901       22.2437961059
  C         7.5003390102       13.6372465918       21.3489516136
  S         2.6283201135        5.6259332445       19.8998843193
  N         3.1433022805        6.1509908359       18.4533227120
  C         3.6075654649        8.3486154167       17.3999266678
  H         3.7945336031       10.5697450221       16.7795941732
  H         1.1350066603        8.4834376132       28.1007013252
  H         0.5104347539        8.8691967536       29.6581341882
  C         1.9237600959       10.3681630012       29.0369539015
  H        -1.4105634689        8.4261120064       27.2710562772
  H        -1.7583112366        8.6758024846       28.9118107153
  C        -2.9759955928        9.9188340867       27.5930092126
  H        -1.3212771459       10.7579207672       30.7918011834
  C        -1.6315278953       13.5943701865       31.7500368196
  H         8.4015102762       13.0217554681       21.1324245601
  H         7.9502337126       14.6752564613       21.3679177136
  C         6.6200521207       13.4370923346       20.0984261662
  C         3.8203739594        7.6621426319       16.1434724585
  H         2.2440638408       10.8528509844       28.0915218018
  H         1.5651613110       11.2312550371       29.6141259072
  C         3.0477206442        9.6919323668       29.7250052059
  H        -2.8212711937       10.5272558205       26.6821345053
  H        -3.3262846872       10.6134086893       28.3803306228
  C        -4.0715812616        8.8757097718       27.3903806418
  C        -1.6588082078       14.9963174239       32.0559206829
  C        -2.0082771748       12.6921643660       32.8711952203
  H         6.2091854921       12.4524059694       20.1448199493
  H         5.7369048170       14.0850608013       20.0940634733
  C         7.3995814287       13.6246900544       18.7442602274
  H         3.6407107653        6.6178925896       16.2273081211
  C         4.1142116364        8.0926006117       14.8325321518
  H         3.4938078662        9.0794116221       28.9516179359
  H         2.7432715597        8.9347894146       30.5148075248
  C         4.1718651539       10.5764837129       30.3306244821
  H        -3.7120858933        8.4263068564       26.4696864645
  H        -4.1736076267        8.1629503446       28.2445276481
  C        -5.4503026221        9.4970935372       27.0077448268
  N        -1.4095384092       15.9420212335       31.0265166147
  C        -1.9358840829       15.5263835121       33.2598654119
  C        -2.1760231840       13.2481871758       34.1556503911
  H        -2.0187151355       11.6169865916       32.7004361986
  H         7.9118974121       14.5762677753       18.6057527350
  H         8.2206531946       12.9219073135       18.6277231694
  H         6.7787265232       13.7237447844       17.8266112592
  S         4.5061116910        9.6980714597       14.3259535479
  C         4.1311535319        7.0700936606       13.7644473136
  H         4.3191158506       11.4746903824       29.7095325790
  H         3.8543413381       10.8510784568       31.3683519555
  C         5.5725499499        9.9358241809       30.4875699301
  H        -5.7214450683       10.3334933438       27.7365834824
  H        -6.1825490951        8.6855262428       27.1080302578
  C        -5.5896867917       10.0797446188       25.5734336295
  S        -1.5255598994       17.4175319427       31.7220757386
  N        -1.9578623004       16.9443209680       33.2417513280
  C        -2.0255060208       14.7128999436       34.3895768868
  H        -2.3688146660       12.6089008798       35.0006644943
  C         4.7475337211        8.9631437695       12.6552347793
  N         4.6337066132        7.6188910989       12.6376890533
  O         3.7378169935        5.9582101678       13.9017196329
  H         5.4536962224        9.1780548979       31.3158785341
  H         6.1700621777       10.7174183895       30.9810013722
  C         6.1831220860        9.2711827047       29.2289366558
  H        -4.6809762941       10.6470764207       25.4041285139
  H        -5.6802295340        9.2651430339       24.9230725716
  C        -6.8034619630       10.9892658758       25.2572029004
  C        -2.3503803127       15.3984742910       35.5851188771
  S         5.1844809127        9.8207420410       11.2128001693
  C         4.6920186068        6.8213854096       11.4373938702
  H         5.5600482183        9.6619658345       28.3678418967
  H         7.1604202624        9.7277960487       29.0169593258
  C         6.0590770259        7.7594156348       29.1506950075
  H        -6.4620344740       11.3731315368       24.3011361581
  H        -6.8795426188       11.7597119082       25.9819421552
  C        -8.1087436199       10.2660755705       25.1228033456
  H        -2.0871312687       16.4789264618       35.6331908352
  C        -2.9807344027       15.0872267341       36.7765891652
  H         5.5729493942        7.1106392074       10.8747624073
  H         4.8659884542        5.8150217937       11.7567206860
  C         3.4200598675        7.0062802657       10.6682607088
  H         6.7292375603        7.5210341607       28.3671327761
  H         5.0239315492        7.4291223270       28.9095356637
  C         6.4551749170        6.9713240622       30.4074626308
  H        -8.5876650847       10.4860285493       24.2078562901
  H        -7.8663669991        9.2491993011       24.9516540303
  C        -9.0508072750       10.3910155099       26.3261313993
  S        -3.5203082112       13.5277045973       37.1737377175
  C        -3.0788486344       16.1105816182       37.8258748584
  H         3.5827917217        6.3381610057        9.8070747960
  H         2.4828109941        6.7040755218       11.1307566930
  H         3.2588822758        7.9951567037       10.3157525700
  H         5.5197786415        6.7153495358       30.9594176719
  H         7.1646963728        7.4257665590       31.0825799154
  H         7.0440333232        6.0661976961       30.0625164588
  H        -9.0978567778        9.5929596550       27.0069966407
  H       -10.0487249666       10.4976198824       26.0472463078
  H        -8.8396111141       11.3105267422       26.8781315531
  C        -4.0192742540       14.2374371122       38.7565810298
  N        -3.6828904947       15.5298708048       38.8855745985
  O        -2.9403688113       17.2950063461       37.6341351312
  S        -4.5263989357       13.3621079262       40.1969343246
  C        -3.8219362663       16.3364620351       40.0770445223
  H        -3.9885038601       17.3617434918       39.7255315847
  H        -4.6405267308       16.0148488967       40.6839797911
  C        -2.5314587408       16.3287688160       40.9521039897
  H        -2.1305473452       17.3066553148       40.9393711043
  H        -2.8106080503       16.1151693600       41.9578136283
  H        -1.7213634111       15.7555288473       40.5316935570
