352
 i =    85200, time =    85200.000, E =        24.9028386336
  H        11.2193462534        7.4340755527       31.0432914897
  C        11.8798321429        6.6983414397       31.5666026959
  H        12.7403239913        7.2347521837       31.9182675022
  C        12.2562491222        5.7354555863       30.4684509643
  C        11.1132856850        6.0978056981       32.8208627637
  C        11.0237583805        5.3354429772       29.6840949405
  H        12.9121656446        6.2936977723       29.7719515865
  H        12.6582127544        4.7938473637       30.7670716017
  H        11.5704006941        6.4580283449       33.7305204223
  H        10.0875355245        6.4055865386       32.8057592739
  H        11.2218856759        5.0248778795       32.7002411994
  C        10.5343915848        6.4156968221       28.7027356738
  H        10.2332037086        5.0454308128       30.3471465814
  H        11.2272450010        4.4348704882       29.1864005626
  C        10.9664841093        6.1204294986       27.2608468168
  H         9.4996819345        6.2923398501       28.8582774781
  H        10.7812783156        7.5259100598       28.8602221734
  C         9.9533217428        5.2409907186       26.4897316493
  H        11.8475236792        5.5249940873       27.4415383787
  H        11.1103390136        7.0602427392       26.7674306285
  C         8.7439679690        5.9536570674       26.0866494492
  H        10.3931703803        4.8364891141       25.5733671897
  H         9.7361236444        4.3157573900       27.0067071657
  C         7.6753624568        5.1234316055       25.4070948092
  H         8.2651922738        6.4031654427       26.8949942168
  H         8.9734521889        6.8311610298       25.4519432805
  C         7.3799308057        3.7560867531       26.0823106024
  C         8.2369403810        4.4431745809       24.1943510390
  C         6.3867155953        5.9298372430       24.9379858828
  C         7.7525073509        2.6894284656       25.3246085846
  C         6.8680108720        3.3184826676       27.3127104017
  C         8.2939868478        3.1244244035       24.1338445513
  C         8.5568512550        5.1829856666       23.0641769930
  H         5.9348140789        5.3063606357       24.1758854830
  H         6.8580033263        6.7620711470       24.4122294167
  C         5.4287720736        6.3469573445       26.1095679534
  S         7.4524922915        1.1622295403       26.0268049134
  C         6.8629291896        1.9467599654       27.4845849610
  H         6.4789677594        4.0536039244       28.0533017077
  C         8.5182407375        2.5455703654       22.8755758337
  H         8.5388215540        6.2619477948       23.1074598125
  C         8.8680833613        4.5917641302       21.8836833775
  H         5.5222633823        5.7873350433       27.0121305026
  H         5.5696907438        7.3545352681       26.4127989992
  C         3.9969555697        6.2011896588       25.6161565814
  C         6.4421526107        1.2978376715       28.7712281727
  C         8.7723266723        3.2662847291       21.7416017502
  H         8.5112385109        1.4463483843       22.8167188115
  C         9.2863297677        5.0167973474       20.6372299762
  H         3.8457701983        5.1922546875       25.2999198793
  H         3.8238902103        6.7816602717       24.7610951116
  C         2.9345279123        6.4872149497       26.6418609044
  C         6.3152226555       -0.0549729801       29.0793775166
  C         6.0369787103        2.2142380804       29.8405799017
  C         9.1485847957        2.6000067063       20.4878943030
  C         9.4487201971        3.9156920542       19.7959633675
  S         9.5730954683        6.5573486043       19.8582325832
  H         1.9913519570        6.7735309096       26.2940519216
  H         3.2978095685        7.3853324599       27.1654995197
  C         2.7733357320        5.4157446730       27.6972838387
  N         6.7351651851       -1.0666158375       28.2104092389
  C         5.9242197210       -0.6070272196       30.2832826402
  C         5.6972098191        1.6818149546       31.0979141339
  H         6.0212272540        3.2861973505       29.7979461294
  C         7.8985604766        1.8579528115       19.9661980619
  C        10.4696656728        1.7425557771       20.5698510393
  C         9.9529912621        4.3529851382       18.5635261443
  C        10.0789823561        5.7281664981       18.4426249716
  H         2.7524845980        4.4630907169       27.1740908113
  H         3.6430895863        5.3336833823       28.4597045908
  C         1.5168233392        5.5346983066       28.5150549140
  S         6.6122574590       -2.5334293446       28.9721814145
  N         6.1391806686       -1.9947231103       30.4164927227
  C         5.4988910465        0.2129782252       31.3751502901
  H         5.4550036090        2.4514978823       31.8513608828
  H         7.7176948895        1.1228401714       20.7367584819
  H         8.1023326390        1.3146073754       19.0307053878
  C         6.6663508545        2.7012243630       19.7571480329
  H        10.9747827728        1.3739880580       19.6425884676
  H        10.3754924153        0.9747574157       21.3412670078
  C        11.7508486338        2.6242406410       21.0381199305
  H        10.0559177732        3.6649236698       17.7682328018
  C        10.5820342103        6.4094500224       17.2138527968
  H         1.3580446821        4.5647837253       28.8767045733
  H         0.5595152967        5.8075815058       27.9964151118
  C         1.7225390504        6.4725444094       29.6794914134
  C         5.2251130475       -0.4072283875       32.6389566909
  H         6.7550012049        3.4734807833       19.0484966210
  H         6.4241317225        3.2416942629       20.6778669957
  C         5.4533738676        1.7982687605       19.5120157908
  H        11.5303912316        3.1446053035       21.9455971440
  H        11.8589721508        3.4151489098       20.3248389878
  C        13.0460046330        1.8276285449       21.1172865007
  C        10.7032165848        7.7958243768       16.9918483609
  C        11.1884505505        5.6363746830       16.0871833122
  H         2.3627327286        7.3060017921       29.5933079414
  H         0.7221041890        6.9131929389       29.9228356490
  C         2.0959237819        5.7129216082       30.9988474282
  H         5.0380721695       -1.4453915306       32.6726053663
  C         4.8467232816        0.1377082357       33.8645799832
  H         4.5184002138        2.0879717402       20.0337819834
  H         5.6027915983        0.7627443889       19.7710117221
  C         4.9468973947        1.7090853881       18.1171754096
  H        13.0211293772        1.1572632599       21.9620642277
  H        13.0845348479        1.1610719095       20.3229452732
  C        14.2946733064        2.7014690308       21.2209761417
  N        10.2957828011        8.8014941150       17.9647638739
  C        11.0623112990        8.3431048846       15.7921397426
  C        11.4945585854        6.1525995658       14.8193262428
  H        11.2159373462        4.5631562613       16.2387483322
  H         2.4752623083        6.5203209758       31.6498946817
  H         1.1794986395        5.1765525397       31.4306085290
  H         2.6895895552        4.8799593959       30.7994716297
  S         4.5783872590        1.7740641549       34.1436798055
  C         4.6689831536       -0.7755917047       35.0446082856
  H         5.1199784419        2.5327697305       17.5246497240
  H         5.3565319511        0.8219834482       17.6229887434
  C         3.4437327864        1.4573444940       17.9480083041
  H        14.0682934302        3.3785995023       22.0566610686
  H        14.4393619523        3.3501003019       20.3806018754
  C        15.4727868394        1.9189407444       21.7596282273
  S        10.4513814216       10.2227693917       17.2845976090
  N        11.0926137897        9.7967820013       15.7985202527
  C        11.5242541688        7.6288085216       14.6206136338
  H        11.8270892895        5.4924870957       14.0327051258
  C         4.3360176274        1.3209954028       35.8861336452
  N         4.3341772475       -0.0336372342       36.1010674593
  O         4.5189187929       -2.0003682186       34.9906921403
  H         3.1153781448        1.4872908244       16.8602893812
  H         2.7880294924        2.1198722647       18.4477626748
  C         3.1613689665        0.1065019624       18.5985308900
  H        15.3102115178        0.8884772512       21.8924848281
  H        16.1667723876        2.0351935704       20.9288160063
  C        16.0646063850        2.5423008909       23.0448647797
  C        11.8355400932        8.3334359360       13.4298081102
  S         4.0279660512        2.4460191428       37.2711845509
  C         4.1797849074       -0.5523379906       37.3866218240
  H         3.9935756563       -0.6224696683       18.3898040832
  H         3.1688816435        0.1909816765       19.6937892830
  C         1.8235310706       -0.5237912132       18.1422641332
  H        15.3032828402        2.4540679506       23.8291461579
  H        16.2073432294        3.6396323700       22.9224427062
  C        17.2979330377        1.7916836625       23.5720591647
  H        11.7472479210        9.3356297483       13.5404485231
  C        12.3384373930        7.8766991503       12.2317985050
  H         3.4424035620        0.0363292049       37.9243830229
  H         3.7494368417       -1.5473662616       37.3546752422
  C         5.4411756860       -0.6903109635       38.1758439376
  H         1.0010954427        0.2174524566       18.0286390996
  H         1.5643471742       -1.2263065186       18.9602496662
  C         1.9184353147       -1.2896136617       16.8822218569
  H        17.3665563007        1.7203423549       24.6328440894
  H        17.1166374910        0.7741837043       23.1753286951
  C        18.6146604498        2.4200088362       22.9440940023
  S        12.7411908597        6.3309418669       11.7027306999
  C        12.3278022024        8.8358590030       11.1063919055
  H         5.7118528817        0.1837352380       38.7129343161
  H         5.1673866606       -1.4352862381       38.9016168592
  H         6.2759531514       -1.1116190541       37.6348063516
  H         2.9008796834       -1.2368489994       16.4857264282
  H         1.2769451298       -0.7485775299       16.1878424868
  H         1.5984119638       -2.3292947404       16.9076517910
  H        19.4043013002        1.6717420356       22.9023014924
  H        18.9505968631        3.2254170719       23.5875276470
  H        18.5113385001        2.7600070993       21.9377806149
  C        12.8053004952        6.8967996959       10.0443891988
  N        12.8165147192        8.2191423008        9.9789219593
  O        12.2400570993       10.0759444891       11.1930467767
  S        13.4809685816        5.9865728597        8.7248916157
  C        12.9655363978        9.0033115370        8.7703078264
  H        13.2368559144       10.0259283445        8.9129654075
  H        13.7814283252        8.7841101182        8.0954797813
  C        11.6974220270        8.9040751163        7.9017754834
  H        11.0479541553        9.6891366831        8.0261184312
  H        11.9430234977        8.8279280074        6.8478908537
  H        11.2052669496        8.0211560420        8.1527125642
  H        -3.2590397998       14.8850780648       15.8617286318
  C        -3.0778955579       13.8674880567       16.1876656562
  H        -4.0921900105       13.5860174610       16.3527635159
  C        -2.1210624533       13.7828242448       17.4446789938
  C        -2.4655517691       13.2179976237       14.9591462911
  C        -2.7508156342       13.9185639545       18.7923532516
  H        -1.6497804379       12.8306143976       17.4047898751
  H        -1.3308332709       14.5282033645       17.3347499135
  H        -1.4542651943       13.4296157619       14.8129865118
  H        -2.5141518894       12.1020209783       14.9149058510
  H        -2.9883681497       13.5744671772       14.0742423123
  C        -1.6335331505       13.7127113007       19.8207719762
  H        -3.5867018695       13.2343374316       18.8117704449
  H        -3.1194242784       14.9604340690       18.9008250761
  C        -1.9365736154       13.9288592174       21.3203756989
  H        -1.3370989994       12.7090515187       19.5894991823
  H        -0.8267657109       14.3576153823       19.5487637377
  C        -0.8701323942       13.3172408500       22.2431835581
  H        -3.0177247831       13.7531629608       21.4195147945
  H        -1.8520250098       15.0211697817       21.6163467085
  C         0.2829474291       14.1924782176       22.6866046268
  H        -1.3067838812       12.8520129230       23.0713933101
  H        -0.4766589140       12.5139106983       21.6655364309
  C         1.4658929485       13.4367399594       23.4113672103
  H         0.6988892035       14.5852999052       21.7745363431
  H         0.0602742524       15.1926890900       23.1172879450
  C         1.8347273476       12.0912506702       22.7691837956
  C         1.0304668172       12.6279185597       24.5993788037
  C         2.7184405249       14.3394186964       23.6148598501
  C         1.7335275477       10.9765135860       23.5350069960
  C         2.3713797344       11.7291537395       21.5285265018
  C         1.2026263294       11.3156914880       24.7580812806
  C         0.5852924782       13.3416277570       25.7726607035
  H         2.9610332568       14.8860819704       22.7185439733
  H         2.4616253270       15.0448358353       24.3917466486
  C         4.0513549187       13.7406952218       24.2210293839
  S         2.2193899698        9.5103059741       22.8631866276
  C         2.5842442271       10.3504528400       21.4269298736
  H         2.5788705049       12.5351812894       20.8618538099
  C         0.8188053486       10.7427702056       25.9136381739
  H         0.6137128950       14.4642540096       25.8311618430
  C         0.3170231025       12.7422531911       26.9942626636
  H         4.1828212234       12.9641601681       23.5174898130
  H         3.8655049207       13.3071888930       25.2045242060
  C         5.1803742154       14.8252365978       24.4207052219
  C         3.1369055399        9.6923012660       20.2520808276
  C         0.3895230629       11.4132516864       27.0564939693
  H         1.0900422566        9.6662334798       26.0583943695
  C        -0.1952947714       13.0511242215       28.2021097763
  H         5.8701457151       14.3319689419       25.0905129158
  H         4.7020252025       15.7158254730       24.9424996980
  C         5.9423612747       15.1189326676       23.0885257045
  C         2.9761933193        8.3438910343       19.8838447542
  C         3.8397086825       10.5374970947       19.2630221489
  C        -0.0104475569       10.5893320969       28.2623498421
  C        -0.3673401601       11.8984063854       28.9701656087
  S        -0.5031330276       14.4757434636       29.0328564105
  H         6.6124617694       16.0260378015       23.2310235998
  H         5.1667830309       15.2907982073       22.3196038962
  C         6.8195330510       13.8791767841       22.7482289103
  N         2.5296699256        7.3290530164       20.7750370907
  C         3.2247385000        7.8472485662       18.6641842628
  C         4.0284304771       10.0732021569       18.0063256232
  H         3.8726168427       11.6537633744       19.4286999444
  C         1.0335636617        9.8768106739       29.1494085926
  C        -1.3147939708        9.6927865136       28.0758160929
  C        -0.9390814021       12.2710755122       30.1984698720
  C        -1.0522412583       13.6251988610       30.3867241633
  H         7.6867250039       14.0040598426       23.4475067428
  H         6.3804338543       12.9152328009       23.0661129120
  C         7.2978170015       13.9440671550       21.2858782184
  S         2.5645531776        5.8757930351       19.9687142706
  N         3.0105148831        6.4977057771       18.5624978866
  C         3.6145538795        8.6732906470       17.5838875047
  H         4.4403832404       10.7551185371       17.2640080826
  H         1.5515858907        9.0933236142       28.5787888091
  H         0.4827965813        9.2881561063       29.8714653889
  C         2.0909254029       10.7476948546       29.7617204397
  H        -1.2122491692        8.8076155081       27.5124210672
  H        -1.5897740625        9.1873357599       29.0360473099
  C        -2.5090425407       10.4912105006       27.6158381974
  H        -1.2015417137       11.5302019677       30.8900729081
  C        -1.3968275232       14.3557678065       31.6611840397
  H         8.2130625772       13.2973650646       21.1555771561
  H         7.5826502696       14.9632541232       21.0077463795
  C         6.1551109356       13.4048239026       20.3147901547
  C         3.8372679906        8.0466454643       16.3275238374
  H         2.5660065126       11.4763018770       29.0544989324
  H         1.7399804170       11.3818924690       30.5523515356
  C         3.1392838527        9.7746788807       30.2513652878
  H        -2.3534430482       11.0924815086       26.7106873760
  H        -2.9277244996       11.2279965059       28.3077661344
  C        -3.6797169178        9.6797273518       27.2585072314
  C        -1.4321301610       15.7387158713       31.8309228240
  C        -1.7696563667       13.5237755512       32.8256171940
  H         6.0730664749       12.4023684645       20.5276559067
  H         5.2217659282       13.9074556147       20.5735912155
  C         6.4613384156       13.6629266766       18.8214407960
  H         3.5528785180        6.9429154316       16.1688771737
  C         4.2972210356        8.5365691984       15.0509226887
  H         3.6536222887        9.2457502862       29.4487456243
  H         2.5645229036        9.0663238071       30.8283350820
  C         4.2129583733       10.4255674271       31.1358272018
  H        -3.5018751966        9.0606609176       26.3857943949
  H        -3.7549230111        8.8170362537       28.0620094324
  C        -5.1128537477       10.3807674516       27.3655823215
  N        -1.3586662142       16.6577789456       30.7902827368
  C        -1.8188686166       16.3407673289       33.0102888483
  C        -2.2181547754       14.1576471691       34.0389316929
  H        -1.8567530109       12.4588974201       32.7142263270
  H         6.3469318830       14.6871810214       18.5148580767
  H         7.4198426345       13.1383022392       18.6468849031
  H         5.7527732668       13.1541055346       18.1390774263
  S         4.7039074370       10.1493001867       14.5367524442
  C         4.3786449206        7.4907108248       13.9819985019
  H         4.4279029497       11.4043208375       30.7115098278
  H         3.6926974878       10.4621399708       32.1190185135
  C         5.4285957879        9.5357363680       31.2752768342
  H        -5.1689551700       11.3199174107       27.9328335937
  H        -5.7085245807        9.6522675519       27.8628670318
  C        -5.6324825907       10.4784480364       25.9272492340
  S        -1.2491014274       18.1705976150       31.3160593981
  N        -1.7142346216       17.7742583745       32.8416918715
  C        -2.1622292968       15.6559108234       34.1894162281
  H        -2.6147788663       13.5552617802       34.8469388202
  C         4.9591083920        9.4054574016       12.9395040799
  N         4.8708227748        8.0781835911       12.8929019702
  O         4.1461380933        6.2605009149       14.1269926562
  H         5.0137124514        8.5852512589       31.7250961739
  H         6.1711341996        9.8271537404       32.0030779608
  C         6.1853854700        9.2372757921       29.9846902124
  H        -4.8130602322       10.9313698309       25.3383123131
  H        -5.7530239066        9.5032595601       25.5162759336
  C        -6.8752040893       11.3088844201       25.7192520009
  C        -2.4292972140       16.3639855153       35.3939924244
  S         5.4656608454       10.3675055623       11.4961969914
  C         5.0289893713        7.2385106654       11.6832540729
  H         5.8552657249        9.8584371039       29.1388043611
  H         7.2920937586        9.3695794785       30.0871626781
  C         6.0073087993        7.7155125822       29.6395483001
  H        -7.0362879106       11.4696187231       24.6426624414
  H        -6.5971245301       12.1788858734       26.2225698099
  C        -8.1063515596       10.7334357297       26.3374563390
  H        -2.0021898177       17.3582925573       35.3616122945
  C        -2.9932974516       16.0507427885       36.5622713419
  H         5.8516553816        7.6681130582       11.0458467477
  H         5.4885446582        6.2818630784       11.9241364044
  C         3.6860896512        7.0400554451       10.9418647461
  H         6.2680437569        7.5883410344       28.5488286166
  H         5.0261788193        7.3561942179       29.9533067054
  C         7.0275147466        6.8541318284       30.3630645197
  H        -8.0436679479       10.4898448768       27.4108719646
  H        -8.7273124528       11.6068149611       26.2256532001
  C        -8.7575027548        9.6536743505       25.4848371326
  S        -3.7577762753       14.5718511408       37.0764058405
  C        -3.0984928344       17.1559809251       37.6191228827
  H         3.5490901550        7.7108725249       10.1726734862
  H         3.5071517053        6.0543420687       10.5507150905
  H         2.8583187952        7.3024571076       11.6845982076
  H         6.7520196521        6.8345045310       31.4479716647
  H         8.0458869801        7.3071730954       30.3265702717
  H         7.2154950955        5.8428067457       29.9688062856
  H        -8.4519158446        8.7385369941       25.8956017206
  H        -8.3730357437        9.5563111904       24.4817686468
  H        -9.8251948220        9.8100916160       25.4857630700
  C        -4.0601157578       15.4249251271       38.6272729859
  N        -3.6935457202       16.7174564694       38.7050271152
  O        -2.6444957330       18.3138613967       37.5215560556
  S        -4.9537875178       14.6949431695       40.0008230061
  C        -3.7962959457       17.5350179462       39.8995562695
  H        -3.7759475941       18.5495582734       39.4548328838
  H        -4.7821471058       17.3740215963       40.3251108707
  C        -2.5011013907       17.5165104263       40.7447786631
  H        -2.1923432584       18.4909497910       41.2173987770
  H        -2.6300541902       16.8671484759       41.5617717056
  H        -1.6563575305       17.2948620346       40.1353830867
