352
 i =    81500, time =    81500.000, E =        25.4569018634
  H        10.5216807030        7.5792816746       31.2992937079
  C        11.2193486144        6.8487902721       31.7130785952
  H        12.0012844887        7.4697666280       32.1684326302
  C        11.9051344803        6.0714608809       30.5023324853
  C        10.6545861131        5.9994498090       32.9012845173
  C        10.9764972752        5.1943756541       29.5577885708
  H        12.3952235476        6.7128355613       29.8199247715
  H        12.6729993138        5.5004590407       30.9101571730
  H        10.9968899911        6.4485885401       33.7984362184
  H         9.5632483005        6.1424663636       32.9589626890
  H        11.0022810159        4.9516420947       32.8416588616
  C        10.0741665383        6.0946538315       28.6854083086
  H        10.2881679899        4.8343415725       30.3037561825
  H        11.4512653215        4.3313358487       29.0701560515
  C        10.7466594924        5.9405189215       27.2316858425
  H         9.0869803758        5.6467834815       28.9184697810
  H        10.0301322970        7.1984642581       28.9548374998
  C         9.8245968144        5.1144824347       26.3499973904
  H        11.7133858365        5.4669667409       27.2867667701
  H        10.8857842430        6.9164197580       26.7780277966
  C         8.5796097869        5.9128102945       25.9081591173
  H        10.3648986799        4.8126331241       25.4093315868
  H         9.5556693955        4.2053820253       26.9362901028
  C         7.5863177764        5.0265817197       25.0529425212
  H         8.0026587545        6.3303646411       26.7785311980
  H         8.8252251354        6.7542251628       25.3615555668
  C         7.2419887124        3.6334433666       25.8182410873
  C         8.1523320033        4.3209890591       23.8989704930
  C         6.2929567935        5.7910187701       24.5360226781
  C         7.5222245674        2.5268789284       25.0688451330
  C         6.8257932274        3.2900285793       27.0717819967
  C         7.9682492575        3.0185783321       23.8619035471
  C         8.6097257033        5.0674296295       22.8065383702
  H         5.8388181582        5.2570432874       23.6817628018
  H         6.6181786170        6.7893340100       24.2091281702
  C         5.1171084452        6.0457262340       25.5401854591
  S         6.9934359280        1.0294771907       25.7783803754
  C         6.5682236681        1.9664734264       27.2208205099
  H         6.6443025975        4.1215414577       27.7066603028
  C         8.2316357518        2.4347495776       22.6384623487
  H         8.6879800406        6.1315014832       22.8472104754
  C         8.8918922070        4.4364047742       21.6136449446
  H         5.0664812864        5.2970712051       26.3539363128
  H         5.4643026652        6.9215562196       26.0437463757
  C         3.6569352703        6.1957548083       24.9639776483
  C         6.1701149118        1.2935129854       28.5301097090
  C         8.6366376988        3.1380209537       21.4925187160
  H         7.8677358187        1.3611578325       22.5840270829
  C         9.2959657823        4.8113715172       20.3632138011
  H         3.6219578094        5.2577522863       24.3018358040
  H         3.5593731713        6.8942777075       24.2078081011
  C         2.6051637583        6.4163767139       26.0424430379
  C         6.2379217785       -0.0528629305       28.8821347962
  C         5.8345224755        2.2600711977       29.6364293646
  C         9.0198701422        2.3481217263       20.3189336026
  C         9.3991401603        3.6925533779       19.5383835269
  S         9.6032977875        6.3436455412       19.6184162852
  H         1.9542820568        7.1539023553       25.6880851459
  H         3.1730283246        6.8376096791       26.8808565544
  C         1.8071701518        5.1689522810       26.3140056972
  N         6.6320180692       -0.9942087221       27.9386701867
  C         5.9512469563       -0.5858789121       30.1215392320
  C         5.5833190987        1.7112917343       30.9135418972
  H         5.7043277284        3.2534124364       29.3724696398
  C         7.7486621703        1.5654904795       19.7011204419
  C        10.2796999882        1.4521124338       20.5839269485
  C         9.8645040838        4.0986191519       18.2355011511
  C         9.9867066239        5.4921004194       18.1273231088
  H         1.2400040621        4.7959927144       25.4446313846
  H         2.3866474698        4.2735829891       26.4804829554
  C         0.9204358755        5.3577002313       27.4860362077
  S         6.6716156699       -2.4384114898       28.6540687002
  N         6.0817254631       -1.9881049930       30.0831045816
  C         5.7016147178        0.2758667484       31.1868456314
  H         5.1667822299        2.4177726308       31.5748859704
  H         7.4453669659        0.9667574050       20.5399634619
  H         8.0517703404        0.9790542075       18.7978175916
  C         6.5912237111        2.4533939432       19.3045098680
  H        10.4050822905        0.9101993425       19.6915471465
  H         9.9999463677        0.6607074128       21.3241054022
  C        11.4924428869        2.1357230328       21.0776602944
  H        10.0698205562        3.2985736526       17.5385223775
  C        10.2532489802        6.2220530814       16.8383348535
  H         0.0677991381        4.7064842611       27.4035237776
  H         0.4687696175        6.3162756531       27.3843325892
  C         1.6194180260        4.8710369916       28.8508753562
  C         5.5329758037       -0.3838331515       32.4448675512
  H         6.8143360890        3.1166246563       18.4633949717
  H         6.2355665447        3.1228101272       20.0947523309
  C         5.2374193556        1.8178555778       19.0775240206
  H        11.2857972213        2.6290066661       22.0637962100
  H        11.6964999396        3.0341359387       20.4490024137
  C        12.8096009433        1.3392028122       21.0924208618
  C        10.4647470304        7.5908918683       16.7532469808
  C        10.6101352594        5.4162347423       15.6418807075
  H         0.9886608410        4.1647658753       29.3193789821
  H         2.5839795015        4.3547849107       28.6949564898
  C         1.8912146826        5.9707405887       29.7946604587
  H         5.7608388852       -1.4318108373       32.3597907177
  C         5.0721509931        0.1323867473       33.6066465396
  H         4.5259150149        2.5991977371       18.9828171775
  H         4.9204001324        1.0952180868       19.8501808773
  C         5.3143976450        0.8886977266       17.8186507013
  H        12.6697694851        0.4723540317       21.7016018760
  H        12.9695253238        0.9450639991       20.1034361510
  C        14.0061304841        2.2707875250       21.4911368407
  N        10.1846542479        8.4798340669       17.7819881429
  C        10.7985183322        8.1997315176       15.5857681299
  C        11.0270793014        6.0387367520       14.4542064567
  H        10.4532536725        4.3366274801       15.6325249755
  H         2.8805195731        6.3813796125       29.4888735885
  H         1.2211420235        6.8378923255       29.6804446683
  H         1.8664333247        5.6625758208       30.8403179607
  S         4.7191388292        1.8011998037       33.9047619412
  C         5.0082468753       -0.7822621410       34.7750996436
  H         5.9656697861        1.4376633701       17.0268382051
  H         5.9134156971       -0.0217945755       17.8738970023
  C         3.8698245911        0.4770283874       17.4518047508
  H        13.5453069657        3.1040452159       22.0010552050
  H        14.5050357170        2.7176745801       20.6595201546
  C        14.9896899008        1.7067079375       22.4765754795
  S        10.5984059883        9.9470375073       17.2991668728
  N        10.8443286443        9.5913611278       15.7022215328
  C        11.0510958659        7.5499453776       14.4221158377
  H        11.2468235839        5.4742822166       13.5397726668
  C         4.4634020473        1.2013538660       35.6029265652
  N         4.6628157380       -0.0862840264       35.8423081063
  O         5.3243174821       -1.9767481857       34.6635017851
  H         3.9351170189        0.2456214720       16.4586652284
  H         3.0277604620        1.1584955110       17.4293411848
  C         3.3329924983       -0.7308019097       18.2454969520
  H        14.4464797113        1.2625093880       23.2500654751
  H        15.4313587496        0.8631109915       21.9914344226
  C        16.1051255912        2.6660718373       22.8126842862
  C        11.2770199568        8.3062447488       13.2671380248
  S         3.9774024495        2.1920870078       37.0184661889
  C         4.5245906005       -0.7636313091       37.1603178385
  H         3.9663852677       -1.6161835779       18.1236176877
  H         3.4377613301       -0.5727930429       19.2466735108
  C         1.8761807264       -1.1753348128       18.0013063516
  H        15.6010926252        3.4418249869       23.3340503116
  H        16.5248992435        3.1116382239       21.9616389198
  C        17.0553082387        1.8808048011       23.6349697849
  H        11.1013477804        9.3238971773       13.3886567710
  C        11.7876887774        8.0551751114       12.0013605096
  H         3.8658954255       -0.2589367005       37.9132643453
  H         3.9288986869       -1.7300634364       36.9777017644
  C         5.8123754181       -1.2840857311       37.7307096258
  H         1.1137310566       -0.4730600239       18.4083843654
  H         1.6555363012       -2.0236010540       18.6492570459
  C         1.5379856778       -1.5107531274       16.5254441415
  H        17.3455843558        2.5048740858       24.4380317788
  H        16.6762865365        0.9566313090       24.0278629151
  C        18.2728457365        1.5929464452       22.8201710475
  S        12.3550388672        6.5957897881       11.3891590136
  C        11.8774924216        9.2771697077       11.1340816346
  H         6.3244576701       -1.8329435560       37.0398603468
  H         6.5094393200       -0.4345615821       37.9878737287
  H         5.7440815968       -1.7523253540       38.7172434201
  H         1.9502474230       -2.4610336771       16.1432825798
  H         1.9920263550       -0.6524971900       15.9975771999
  H         0.4916367482       -1.5430869936       16.2414507590
  H        18.8731724238        2.4498999530       22.4899769332
  H        18.0797990737        1.0801827119       21.8572457811
  H        18.9170277397        0.9577716715       23.5083990101
  C        12.6274976470        7.4473171383        9.8892790982
  N        12.2781057973        8.7622456655        9.9295352979
  O        11.5046543354       10.4237590521       11.4009228215
  S        13.7340112685        7.0214076919        8.5766388893
  C        12.4298234600        9.7320972840        8.7820126645
  H        12.2409184047       10.7233238953        9.1868210818
  H        13.4962799150        9.8076801182        8.5329092005
  C        11.7191497519        9.3628096040        7.4746836448
  H        10.8841277795        8.7594883046        7.6596528085
  H        11.3561343334       10.3206781864        7.0608967614
  H        12.2654763066        8.7502985895        6.7447496208
  H        -1.3367793693       15.1954151783       16.0103380075
  C        -2.3843529648       14.7233924013       16.0472277783
  H        -3.0442712298       15.5459236922       15.8814317246
  C        -2.6137680784       14.0430749692       17.4250598475
  C        -2.5573353173       13.6319183249       14.9868629465
  C        -2.2538521119       14.7798101300       18.7374457314
  H        -3.5936809831       13.6300807913       17.4054815581
  H        -2.1441555046       13.0782034784       17.4138616514
  H        -2.9043182953       13.9526134120       13.9961697200
  H        -1.6574040401       13.1184183501       14.7661306222
  H        -3.3060324124       12.9142850099       15.2563703468
  C        -1.4027216726       13.9432151979       19.7240650155
  H        -3.1338596701       15.1014552023       19.2555798443
  H        -1.7573565431       15.7209498312       18.4806014857
  C        -1.9701015485       13.8877492085       21.0301739412
  H        -1.3120414888       12.8857266270       19.5287873610
  H        -0.3404582116       14.1340013731       19.6977871462
  C        -1.0680077102       13.1842766200       22.0066119509
  H        -2.9208885244       13.3825350303       20.9186825321
  H        -2.1947721762       14.8566600217       21.4191594496
  C         0.1108088491       14.0907528559       22.4854364233
  H        -1.5992489976       12.7512254034       22.8032473065
  H        -0.6040625765       12.3581576490       21.4595200721
  C         1.2855827842       13.4103342807       23.2384944731
  H         0.5812259575       14.5339751334       21.6212507456
  H        -0.2498535797       14.9934846744       22.8762594694
  C         1.7253433962       12.1069287787       22.5737604361
  C         0.8291753233       12.6468372666       24.4108212918
  C         2.4434588682       14.3917145470       23.5249172690
  C         1.4315425292       10.9465081015       23.3099966420
  C         2.2869750769       11.7541751048       21.3567194569
  C         0.8288569975       11.3293199754       24.4935518443
  C         0.3187757071       13.2993483342       25.5342714573
  H         2.7959614132       14.7909105088       22.5227762785
  H         2.0409153542       15.2072172211       24.1434487655
  C         3.6944701287       13.5855366585       24.0528664796
  S         1.8596116040        9.4863473824       22.5586524089
  C         2.4424657082       10.3825438141       21.1673490301
  H         2.5216213524       12.4998168332       20.6434015314
  C         0.4246820663       10.6313782782       25.6206325426
  H         0.2880184420       14.3835598889       25.3580790171
  C        -0.1075563884       12.6259461251       26.6819060957
  H         3.9862680509       12.7236033370       23.5658504252
  H         3.3750429628       13.1316412020       24.9947095927
  C         4.8890966808       14.5548950689       24.2469136651
  C         2.9432559186        9.7172732136       19.9629787133
  C        -0.0654010097       11.2779742221       26.7394072690
  H         0.4341344144        9.5597303630       25.6741765203
  C        -0.4441152812       13.0011785011       27.9589416466
  H         5.5947777002       14.0492396303       24.9486584545
  H         4.6324617896       15.5789577095       24.6604297406
  C         5.6748799818       14.7917064417       22.9209054179
  C         2.8280220408        8.2785610810       19.7226252389
  C         3.3249886655       10.4955935841       18.7324134402
  C        -0.4846038472       10.5267127568       28.0026799681
  C        -0.6376377134       11.8673213655       28.7534511741
  S        -0.6428371445       14.4480917537       28.8364460536
  H         6.4876904602       15.4765593250       23.0199230620
  H         4.9651332054       15.0895128217       22.1677025998
  C         6.2765999763       13.5483232428       22.3716123163
  N         2.6219724926        7.3136174418       20.7000399194
  C         3.1023224086        7.7282160469       18.4670426102
  C         3.6082519462        9.8194903882       17.5278837866
  H         3.5785399467       11.5657068021       18.7734310000
  C         0.6123329987        9.6013066420       28.5564796943
  C        -1.8780675019        9.8131330108       27.8410788857
  C        -0.8789058391       12.2745470436       30.0652387439
  C        -0.8425928891       13.6050109969       30.3447118026
  H         6.6224797121       13.0190417554       23.1585511851
  H         5.4816610097       12.8841942662       22.0422392167
  C         7.2752108465       13.8277740490       21.2984978966
  S         2.4703542312        5.9009618373       19.9499779452
  N         2.9685777215        6.3646978961       18.5080897316
  C         3.5398806249        8.3935671283       17.3371559047
  H         4.0182712183       10.4345242483       16.7518144009
  H         0.8649601795        8.7468833164       27.9234592642
  H         0.1196912319        9.2541785340       29.4449859715
  C         1.8600356547       10.3794257110       29.1452503039
  H        -1.7361352894        9.0809090158       27.0421952206
  H        -2.2477582513        9.2395344562       28.7318413418
  C        -3.0599526059       10.6308700082       27.5586843549
  H        -1.0757392329       11.4882585071       30.8104602215
  C        -1.2399067485       14.2563732590       31.7130626781
  H         7.8809235828       12.9574791415       21.1049622213
  H         7.8854002538       14.7509365822       21.5081774703
  C         6.6565588417       13.7772155207       19.9399522575
  C         3.7989081487        7.6724780508       16.1542605829
  H         2.2533364726       11.1962666069       28.4565834032
  H         1.6102097424       10.9154457718       30.0551291824
  C         2.9921180932        9.4395505547       29.5333053632
  H        -2.7634627715       11.3670777159       26.8022504207
  H        -3.4310539151       11.1897534123       28.4496088771
  C        -4.1856778208        9.8071225198       26.9977643877
  C        -1.4150055909       15.6563171636       31.9975766788
  C        -1.6087246991       13.3516344222       32.8468718293
  H         6.0623961177       12.7974951398       19.9012299265
  H         5.9229019907       14.6107287915       19.8477457002
  C         7.6814240316       13.6459098428       18.7946747908
  H         3.6277096771        6.6160500338       16.1315045722
  C         4.1094580275        8.0797379429       14.8989838170
  H         3.2392326482        8.9172789482       28.5971479823
  H         2.5746404651        8.7500965694       30.2328754175
  C         4.2019287519       10.1654961972       30.0578823291
  H        -3.8049960498        9.0619529949       26.2892599085
  H        -4.5914824059        9.3828657785       27.9389366644
  C        -5.2648441491       10.6385340546       26.3225590576
  N        -1.2043604844       16.7075061858       31.1019406671
  C        -1.8106091151       16.0983033250       33.2288607235
  C        -1.9534796199       13.8487948654       34.0955538050
  H        -1.4612467966       12.2984369429       32.7371453985
  H         8.0372905710       12.6070483403       18.6071279526
  H         7.2162666684       14.1572991034       17.8344095090
  H         8.5540641390       14.2032616758       19.1088949100
  S         4.1865065455        9.6943385204       14.2811918356
  C         4.2862229674        7.0142260596       13.8657462937
  H         4.6604463349       10.6277618668       29.1822432723
  H         4.0179748273       10.9356321441       30.7576084977
  C         5.0848501511        9.1518596585       30.6489130803
  H        -4.9475934216       10.9955754232       25.2906000955
  H        -5.4018250752       11.5334228037       26.9254161508
  C        -6.5569532935        9.8261812416       26.2788671672
  S        -1.4299524051       18.1167824488       31.8898226126
  N        -1.9748770647       17.4853673354       33.2534040573
  C        -2.0626172792       15.2996493303       34.3388602937
  H        -2.0831783038       13.2093644305       34.9394137213
  C         4.6636932358        9.0143345501       12.7201592173
  N         4.7283366764        7.6697303574       12.6942531269
  O         4.3002663211        5.8357081044       14.0777053191
  H         4.4596538277        8.4564826010       31.1891359087
  H         5.6277158757        9.7602098194       31.4248965029
  C         6.0089955669        8.5354231556       29.6442634975
  H        -6.3594155010        8.7850316533       25.9003768019
  H        -6.9960194605        9.7076912878       27.3304500973
  C        -7.6431762549       10.4956184947       25.3392046895
  C        -2.4541448445       15.9623642422       35.5565763911
  S         5.0687074034       10.0665019370       11.3014095176
  C         4.9083229534        6.8439540691       11.5041990232
  H         5.5098469330        8.6679484176       28.6803733422
  H         6.9620960832        9.0564424420       29.7704868259
  C         6.2252707070        6.9780854101       29.9549555300
  H        -7.2490142795       10.7611639776       24.3205853102
  H        -7.9319015110       11.4479140856       25.7998931001
  C        -8.8755621548        9.7091137433       25.1672873982
  H        -1.9565498504       16.9811499280       35.5603199170
  C        -3.1328632738       15.6001557950       36.6878930183
  H         5.6892066045        7.1694566309       10.8848120163
  H         5.1615762129        5.7791973405       11.7280828535
  C         3.6706786985        6.9383383955       10.6146152116
  H         6.8989219337        6.6361929646       29.2624061012
  H         5.3155327750        6.4443285893       29.7267864139
  C         6.7834174481        6.8069080953       31.3529010476
  H        -9.3072328072       10.1096955351       24.2280436451
  H        -8.5195643296        8.7278406335       24.9907023871
  C        -9.8520926805        9.7814439948       26.3277024368
  S        -3.7401946126       14.0789668202       37.0692139417
  C        -3.1947312413       16.5560581345       37.7849714625
  H         2.7897181581        7.1515664462       11.2199191741
  H         3.8723970552        7.6415475527        9.7870223611
  H         3.5217875015        6.0018735280       10.0943047280
  H         6.2380254928        5.9871722197       31.8140603665
  H         6.6924214071        7.6681874533       31.9128849013
  H         7.8144278351        6.5366035637       31.4499287929
  H       -10.7124872660        9.1359805193       26.1882458927
  H       -10.1330541426       10.8222833106       26.4368057712
  H        -9.4207522319        9.3317723813       27.2164705196
  C        -4.3485376386       14.8136665239       38.5669971238
  N        -3.9838355397       16.0933962096       38.7937500509
  O        -2.6325481142       17.6227768367       37.7608192513
  S        -5.3043219302       14.0048076174       39.8374727648
  C        -4.2304173598       16.8651133852       40.0018453179
  H        -4.4174055519       17.8925591795       39.6752830594
  H        -5.1902439534       16.5655833776       40.4791731672
  C        -3.0428035178       16.6945305804       40.9319707836
  H        -2.5389672811       17.6329468599       41.1986445291
  H        -3.3684799008       16.1744906929       41.8168023786
  H        -2.1916060462       16.1798680117       40.3716961760
