352
 i =    17400, time =    17400.000, E =        24.9509555657
  H        11.7135384784        7.4396469497       32.8395262179
  C        11.6951696664        6.3998982440       32.5021158560
  H        12.6985419151        6.3534634775       32.1883833094
  C        10.6468280768        6.2906659784       31.4103950069
  C        11.6058513408        5.3664933623       33.5951480349
  C        11.2457164085        6.1390658524       30.0017270239
  H         9.8597621427        5.5752797752       31.6434809383
  H        10.1296270175        7.2775610731       31.3819264181
  H        11.0583910259        5.6951443979       34.4369170798
  H        10.9328427975        4.5970904648       33.2387945586
  H        12.5482164225        4.9169947331       33.9435853225
  C        10.1797103350        5.8021007740       28.9165411801
  H        11.9930453210        5.3657731589       30.0256786250
  H        11.8969739966        7.0097122885       29.7180414372
  C        10.6751390328        5.8707272421       27.5197884421
  H         9.6548693665        4.8146909410       29.1294187368
  H         9.3529804553        6.4916099498       28.9509576717
  C         9.7623104073        5.2024175049       26.5591759655
  H        11.6258895429        5.3545546983       27.5252913177
  H        10.8766975677        6.8619702528       27.1095109802
  C         8.5990133589        6.0780519201       26.0217446397
  H        10.2917690514        4.9802610288       25.6147390842
  H         9.4531426112        4.2908450056       26.9784255254
  C         7.5637892502        5.2700836147       25.2637893463
  H         8.1262554737        6.3591406765       26.9488192789
  H         8.8795726217        6.9444038920       25.4168931052
  C         7.3125155052        4.0317185246       26.0418332731
  C         8.0498212811        4.6135215810       24.0137801455
  C         6.3068119791        6.0875697848       25.1125775815
  C         7.5584981293        2.9149167309       25.2440713830
  C         6.8101998811        3.6836742124       27.2717315164
  C         7.9878559094        3.2580323789       23.9467487842
  C         8.4047772469        5.3351069348       22.8628533559
  H         6.5650654992        6.9284326823       24.4421506435
  H         6.1136580256        6.5018285951       26.1310243667
  C         5.1453285344        5.2489369069       24.5232493826
  S         7.0029118934        1.4680723546       26.0260406878
  C         6.6153478078        2.3205290500       27.4809300077
  H         6.5274513225        4.5387448828       27.8814313081
  C         8.3505733677        2.6906011884       22.7486539899
  H         8.5403638668        6.3958722330       22.9148889889
  C         8.6872385051        4.7507681802       21.6477495376
  H         5.5244949748        4.6218944415       23.6628274889
  H         4.8733192181        4.5269706848       25.2672797479
  C         3.8643115678        6.0399114979       23.9878213837
  C         6.0866210587        1.6591195807       28.7414956914
  C         8.6855328740        3.4027868187       21.5900101115
  H         8.3263795476        1.6273787431       22.7405612805
  C         8.9970049017        5.1365979996       20.3392621524
  H         3.3936564538        5.3993680809       23.2056779632
  H         4.2032959009        6.9999367203       23.4787669660
  C         3.0224694087        6.4676416861       25.1412584945
  C         6.0692371169        0.2812391569       28.9627003921
  C         5.7173775918        2.5343706407       29.8537462754
  C         9.0268908561        2.6603334531       20.3643249164
  C         9.2115415129        4.0047020534       19.5632393621
  S         9.3907611221        6.6313056571       19.4940427837
  H         2.3069108607        7.2143153841       24.6910789217
  H         3.4575311309        7.1689159332       25.8863522761
  C         2.2103601912        5.3983196015       25.8743493520
  N         6.3692216574       -0.7679172891       28.0170807750
  C         5.7064766180       -0.2340551403       30.1701627530
  C         5.3249303762        2.0133235627       31.0502441063
  H         5.7043460118        3.5713443103       29.7543446211
  C         7.7917308217        1.7229784599       19.9143157855
  C        10.3122437874        1.7729812707       20.4521995738
  C         9.6035643372        4.3529964804       18.2344421919
  C         9.7664671368        5.7134596593       18.1044568353
  H         1.4753311944        4.9460066966       25.1421663265
  H         2.8581198855        4.6756633882       26.0918558121
  C         1.4822669036        5.8989950595       27.1434902516
  S         6.3605425443       -2.2047181036       28.7809893202
  N         5.7483256587       -1.6680828730       30.2319016898
  C         5.2715244198        0.5547857063       31.2923430830
  H         5.1743638743        2.7126818393       31.8692240392
  H         7.8243567157        0.8530798741       20.4726417968
  H         8.0867994628        1.3365337950       18.8784898183
  C         6.4385479954        2.3914578106       19.7777699527
  H        10.5530688554        1.3149233727       19.4688479243
  H        10.1224839063        1.0810383506       21.2243483690
  C        11.5507268662        2.6125620119       20.8784167758
  H         9.8431336332        3.4998172786       17.5291417362
  C        10.1436812193        6.4065087148       16.8829934919
  H         0.9503825443        5.0840373672       27.4972605731
  H         0.7311889728        6.6029234836       26.8804730916
  C         2.4836072757        6.2511831575       28.2511970966
  C         4.8802634626       -0.0959947382       32.5069221913
  H         6.4229055914        3.4019986485       19.3556168836
  H         5.9300546147        2.3908367607       20.7525262459
  C         5.5312363853        1.5825498090       18.8176085215
  H        11.3146712140        3.0557555238       21.8393661242
  H        11.6147352719        3.4892305663       20.2147848642
  C        12.8630043920        1.7780258038       20.9907524528
  C        10.1829416638        7.8484270840       16.7225800094
  C        10.4539933733        5.6931615137       15.6592617773
  H         3.4768028966        5.7026386353       28.0007374211
  H         2.7467608864        7.3662967026       28.2629742302
  C         2.0034652298        5.9492257328       29.6823960104
  H         4.8102786220       -1.1838926769       32.4811059570
  C         4.6374225608        0.3412695241       33.7710685516
  H         5.4743739998        0.5597809108       19.2349966189
  H         5.7973229296        1.4242515437       17.8074246336
  C         4.1052586180        2.1102311873       18.8307853757
  H        12.8090031109        1.1592334809       21.8551263421
  H        12.9673756417        1.0252884685       20.1856758750
  C        14.1247255561        2.5942259129       21.0439527308
  N         9.9397462442        8.8459875936       17.7174377451
  C        10.5059227445        8.4739203932       15.5110325980
  C        10.6730360548        6.2308815013       14.4000547218
  H        10.3503390600        4.6257373314       15.6098007794
  H         0.9234015529        6.0144061102       29.7413986332
  H         2.2732442442        4.8930849535       29.7835982407
  H         2.6011642632        6.5114595543       30.4282748327
  S         4.5715522970        1.9353865425       34.4701028382
  C         4.4959496474       -0.6672085383       34.8031954913
  H         3.9289315390        2.8721045699       19.5999406173
  H         3.9834576933        2.6612499371       17.8855274414
  C         2.9226996331        1.1915244718       18.9320762799
  H        14.2159810915        3.2663237985       20.1807812389
  H        14.9553083509        2.0051290137       20.8550424909
  C        14.2593027269        3.2406874218       22.3975799007
  S        10.1379320666       10.3513358242       17.1396448250
  N        10.6104056416        9.8783213411       15.6199149652
  C        10.8000346810        7.7311124254       14.3058431448
  H        10.7698155823        5.6306212061       13.5053698956
  C         4.2881601635        1.1947779008       36.0444742408
  N         4.3241669247       -0.1266888307       36.0161407031
  O         4.7100277568       -1.8694439196       34.6971740665
  H         2.0536795543        1.6642212467       18.9498384010
  H         2.9973415625        0.6749197815       19.8345662941
  C         2.9743431192        0.0834221454       17.9396088228
  H        14.6431531606        4.2277578682       22.2604186213
  H        13.3098448041        3.4220330768       22.8746852230
  C        15.0616576409        2.4294991436       23.4170156108
  C        11.0423308120        8.4162069066       13.1475084968
  S         4.0794228661        1.9387872447       37.6440740051
  C         4.5790492831       -0.8854870980       37.3213170814
  H         3.0221296955        0.5375937284       17.0139311690
  H         3.9025255985       -0.5137019558       18.0991846771
  C         1.7566406816       -0.8480152584       18.0172514373
  H        14.9039722519        1.3933769157       23.3032233319
  H        14.6668749429        2.7015077030       24.3668430887
  C        16.5283671645        2.7374412682       23.4867511067
  H        10.7405246481        9.4741455843       13.1275880092
  C        11.6887700545        8.0805151479       11.9806343751
  H         3.9440521979       -0.4962893893       38.1642932052
  H         4.1444531840       -1.9017890735       37.2339803862
  C         6.0882309645       -0.9804446720       37.7029160674
  H         0.9132847592       -0.1414179389       17.9772937006
  H         1.7674916450       -1.2751887254       19.0601293535
  C         1.6814364288       -1.8938857686       16.8795857868
  H        16.6408917177        3.7993316214       23.7358850694
  H        16.9429164763        2.1695560564       24.4115244533
  C        17.2807245349        2.2475473831       22.2525432334
  S        12.4475422725        6.6123887468       11.5919044821
  C        11.7168392651        9.1630067247       10.9558365562
  H         6.5880978055       -1.1682269580       36.7562317033
  H         6.4920132818       -0.0367849105       38.0634396601
  H         6.3530260105       -1.7384088194       38.4555967020
  H         0.8314750898       -2.4986318749       16.9791733811
  H         2.5980063071       -2.5261221369       16.8255777555
  H         1.6796180080       -1.4267063657       15.9015536470
  H        18.3544861669        2.5114969657       22.2244983248
  H        16.8758977499        2.9224121518       21.4512092840
  H        17.1272992505        1.2445714085       21.9684589005
  C        12.8027294453        7.4135755552        9.9867099303
  N        12.3893692002        8.7102253169        9.9097593970
  O        11.1884370639       10.2335122087       11.0604040347
  S        13.4617542844        6.6263279971        8.5917740279
  C        12.4114505818        9.5137316382        8.6721410772
  H        12.5520953604       10.5779827667        8.9867433434
  H        13.3413125316        9.2927889385        8.0440782961
  C        11.1829021240        9.4281544507        7.7788214610
  H        10.8736804326       10.4041836265        7.2794359927
  H        11.3449187265        8.7424077841        6.9452545484
  H        10.2871267614        9.0897135711        8.3111979578
  H        -3.3623431926       14.9497406570       16.2674662476
  C        -3.4041677466       13.8551181456       16.2707287720
  H        -4.3797749728       13.6366194445       16.6213098398
  C        -2.4474680066       13.4085797883       17.3121767916
  C        -3.3094316462       13.1510504316       14.8878058225
  C        -2.4228022149       14.3778154333       18.5199904273
  H        -2.8188307192       12.4344040845       17.7327705690
  H        -1.4145427763       13.3034222828       17.0553360571
  H        -2.3880527682       13.3223858985       14.2355052286
  H        -3.4361200032       12.0800948619       15.0580761956
  H        -4.1252397442       13.3813446657       14.2733406420
  C        -1.4450282977       13.8580538413       19.5543246461
  H        -3.3540985840       14.5310122194       18.8549385277
  H        -2.0784166899       15.3373224123       18.1318805640
  C        -1.9913014622       13.3210780221       20.8640010851
  H        -1.0314305929       12.9748420155       19.2403495693
  H        -0.7164400632       14.6498574416       19.7374513295
  C        -0.9754892442       12.5381155194       21.7587638687
  H        -2.8274834028       12.6862801711       20.7980373711
  H        -2.2749642939       14.2401958150       21.3629879512
  C         0.1093880465       13.6123897791       22.1829621826
  H        -1.5794219383       12.2597811063       22.5735459780
  H        -0.6140025689       11.6407209213       21.1863616210
  C         1.2408720274       13.0741115806       23.1116540319
  H         0.5981336063       13.9551074740       21.2523000793
  H        -0.3369104000       14.3993103966       22.7838564905
  C         1.8009175582       11.7635414182       22.5016864051
  C         0.8327348262       12.3394235872       24.3157208139
  C         2.4042939446       14.0141442721       23.3657872548
  C         1.5113200357       10.6375911077       23.3143402578
  C         2.4656028668       11.3247711852       21.3382484401
  C         0.9084093349       10.9878143427       24.4503639080
  C         0.4113915194       13.0470555037       25.4248942344
  H         2.6114983855       14.5848743898       22.4318292594
  H         2.1718164700       14.7846302997       24.1070681475
  C         3.7438083939       13.3852164066       23.9176182370
  S         1.9018277354        9.1163172785       22.5779390304
  C         2.4106686720        9.9668242979       21.1433871703
  H         2.8832733397       12.0137974457       20.5834080307
  C         0.4544355532       10.3755372834       25.6147091383
  H         0.4158331697       14.1505096648       25.4071596364
  C        -0.0324598726       12.4388663886       26.5610727392
  H         4.0591219840       12.6082552329       23.2587036120
  H         3.5979017530       12.9418254369       24.9174166979
  C         5.0056042897       14.3679809693       23.9104761433
  C         2.6596831689        9.2753463969       19.8414912203
  C        -0.0098988139       11.0799753544       26.6798593320
  H         0.4854227986        9.2433657358       25.6924444923
  C        -0.5197626782       12.8076065364       27.7401517494
  H         5.6307679182       14.0930854797       24.7287828692
  H         4.8273812535       15.4631436449       24.0410841104
  C         5.7261501194       14.6016897698       22.5395319394
  C         2.4438986632        7.9127081558       19.5573801773
  C         2.9525085858       10.1331949090       18.6845540338
  C        -0.4603209649       10.3320253415       27.8661992974
  C        -0.8129823600       11.7104110180       28.5120560087
  S        -0.8527492681       14.3027768167       28.5104104766
  H         6.3357618159       15.4961596277       22.3844855562
  H         4.9812671776       14.7405345984       21.7563536626
  C         6.4990105432       13.3153756845       22.1380476099
  N         2.1404128148        6.8533663956       20.4468521119
  C         2.7650024993        7.4451449374       18.2894731567
  C         3.3355641769        9.6486048534       17.4543596133
  H         3.0776495058       11.1745397072       18.8164671844
  C         0.6535205993        9.5548813828       28.5672940650
  C        -1.6399425260        9.3913563507       27.7117561750
  C        -1.2166360382       12.0097224363       29.8158843170
  C        -1.2329345912       13.4069522324       30.0312126052
  H         7.1103299995       13.0206188690       22.9396152878
  H         5.6625218246       12.5611180961       22.0361945750
  C         7.3489861211       13.4305641531       20.8540059311
  S         2.3334399847        5.4182726944       19.6437816878
  N         2.5785086568        6.0776483083       18.1864867876
  C         3.2096020253        8.2061997340       17.1941851260
  H         3.5525079972       10.3995917646       16.7383171201
  H         1.0111657419        8.6720400996       27.9561340697
  H         0.2097737266        9.0220825914       29.4717319212
  C         1.7832090609       10.4900356718       29.0733148456
  H        -1.4327425488        8.5777824965       27.0691531686
  H        -1.8407019702        8.9428969531       28.6774596553
  C        -2.8306306576       10.1664534895       27.1858598243
  H        -1.3542076651       11.2854972085       30.6146883163
  C        -1.6509325796       14.1673467849       31.3137836684
  H         8.0840783435       12.6233475844       20.9061459285
  H         7.9339002400       14.3469703545       20.8296984344
  C         6.4457285169       13.1340847006       19.5969350841
  C         3.4398682937        7.5371050694       15.9584044191
  H         2.0251139614       11.1438439059       28.2297144925
  H         1.5273371581       11.1993306024       29.7379512143
  C         2.9542957035        9.7607191833       29.6211459909
  H        -2.6104479651       10.5823730244       26.1704082975
  H        -3.1404869893       11.0502185154       27.7041871191
  C        -4.1024197852        9.3310278237       27.3232854185
  C        -1.7041421238       15.5455113658       31.5344480923
  C        -1.9665733707       13.2963892193       32.5198449856
  H         6.0477164830       12.1130287094       19.6827320736
  H         5.5530744393       13.6790702327       19.5666020575
  C         7.2771515346       13.3399745875       18.3191367906
  H         3.1799089034        6.5446344416       15.9602781495
  C         3.6179610632        7.9531321099       14.6485584101
  H         3.4604486065        9.1528950664       28.8158513416
  H         2.6283649771        8.9321032251       30.3539557598
  C         3.8878465582       10.7723249722       30.3262671780
  H        -4.1050873982        8.5451242671       26.6062268274
  H        -4.2263130700        8.8521972469       28.2910150759
  C        -5.3202101272       10.2021153199       27.1407039082
  N        -1.5235754832       16.5229277868       30.5275970214
  C        -1.9622299956       16.1775556625       32.7872043094
  C        -2.2137046886       13.8987176608       33.7295387841
  H        -1.8655798542       12.2140238200       32.4648764903
  H         8.2848327888       12.9234477852       18.4316528146
  H         6.6724553699       12.8509187180       17.4639959680
  H         7.3757991213       14.3833643084       18.0579195123
  S         3.9165770313        9.6075926160       14.2789927057
  C         3.5408373982        7.0179144425       13.5258873850
  H         3.8661966642       11.6363380166       29.7330883139
  H         3.4512988429       11.1756191129       31.2836239124
  C         5.3633212081       10.4081559031       30.4444304010
  H        -5.1659499671       11.0499162622       26.4939527053
  H        -5.6023105151       10.5828297588       28.1216967477
  C        -6.4877278087        9.2775620966       26.5228776322
  S        -1.7286196947       17.9661530088       31.1934864785
  N        -2.0434335813       17.5410854376       32.7555730827
  C        -2.1310950179       15.3722049479       33.9712753554
  H        -2.4422088752       13.2758732390       34.5741931901
  C         4.0376166795        9.0391036599       12.5966622443
  N         3.9945760716        7.6868976848       12.4908066954
  O         3.3657376784        5.7870204680       13.6636792890
  H         5.8659392221       11.0669138676       31.1131190025
  H         5.7589478081       10.4684583007       29.3924771732
  C         5.4999704503        9.0753914376       31.0096599583
  H        -6.0869961521        9.0417793844       25.4836179113
  H        -6.4832843810        8.3707070287       27.0751709125
  C        -7.8202509087       10.0915940964       26.4568658188
  C        -2.4162397976       15.9634890253       35.2179473883
  S         4.6987909807        9.9606232461       11.2558564023
  C         4.2706269351        6.8845897646       11.2864471262
  H         5.9923992158        9.1130500563       31.9630265366
  H         4.5052165367        8.6983405483       31.3528453790
  C         6.0841141324        8.0325437408       29.9865407994
  H        -7.6325971185       11.1524246252       26.0770294194
  H        -8.0298343007       10.2675020808       27.5303791490
  C        -9.0790158278        9.5010386558       25.8368743213
  H        -2.3925928284       17.0825546267       35.1558219998
  C        -3.0407976761       15.5437965134       36.3727524671
  H         5.1760369874        7.3922286516       10.8511369444
  H         4.6132328332        5.8768024288       11.6045584381
  C         3.1245854614        6.8968459365       10.3563932458
  H         6.8003336960        8.5343736560       29.3572771054
  H         5.2363127520        7.5812900567       29.4494530299
  C         6.8053695099        6.8530164484       30.6954940181
  H        -9.1864624031        8.5453877462       26.3928248009
  H        -9.9225482744       10.1021175727       26.1850454786
  C        -8.9953120992        9.3895347924       24.3143290098
  S        -3.7659131875       13.9625472523       36.6451621118
  C        -3.2987120527       16.5005173570       37.4636105489
  H         2.8948060388        7.9194860380       10.0772884354
  H         3.3828062256        6.3779148498        9.5158181834
  H         2.2354204915        6.5105546103       10.8199106926
  H         7.3773121944        6.1891810176       30.0217683128
  H         6.1097670141        6.2042994072       31.3424656551
  H         7.5922682821        7.1676656168       31.4249699165
  H        -8.3064077268        8.5552751807       24.0202850752
  H        -8.6700762827       10.3182668951       23.8897601592
  H        -9.9493138221        9.0729292733       23.9741110998
  C        -4.3021976012       14.5979802358       38.2218061054
  N        -4.0325154182       15.8851451408       38.4371271762
  O        -2.6742293853       17.5897747552       37.5049300905
  S        -4.9788775338       13.6671265036       39.5118773194
  C        -4.1290420242       16.5811040588       39.7094019042
  H        -4.4939067653       17.6197396244       39.6302201436
  H        -4.9251208660       16.1874675838       40.3729757975
  C        -2.9106096374       16.5187275738       40.6234255021
  H        -2.0463246071       16.1206509779       40.1814776416
  H        -2.6985895255       17.4549855215       41.0460473802
  H        -3.0653343511       15.7447840399       41.3585368795
