352
 i =    20700, time =    20700.000, E =        24.7298872030
  H        12.1057422081        7.0784245474       31.8121151890
  C        11.8075021810        6.0229055008       31.9344678539
  H        12.7080652940        5.5102408960       31.7494758225
  C        10.7261960441        5.6408545433       30.9113012634
  C        11.4300003914        5.6613690593       33.3828875221
  C        11.2684146050        5.7915915060       29.4203786336
  H        10.2223511132        4.6650243371       31.1120161987
  H         9.9450505642        6.3919079631       30.9654719576
  H        10.3742017581        5.8242663047       33.4393867863
  H        11.8596087999        4.7745993093       33.8448968024
  H        11.8008898092        6.4402452544       33.9700377230
  C        10.1698696542        6.0147329019       28.4195455480
  H        11.7307281987        4.8613703095       29.1408621990
  H        11.9736815225        6.6164912773       29.3501825356
  C        10.6875290773        5.7982023678       26.9941817010
  H         9.3390858274        5.3126925857       28.5849183624
  H         9.7975639067        6.9937849217       28.3815044148
  C         9.6306015388        5.0431987689       26.1715379339
  H        11.5968576419        5.2018233364       26.8890550677
  H        10.9344857452        6.7620760267       26.6293087585
  C         8.3541316579        5.8552010907       25.8807315223
  H         9.9397393135        4.7731558408       25.1286738314
  H         9.4371816876        4.0962734687       26.6207169873
  C         7.2086424657        5.0255704463       25.2129677240
  H         7.9821104388        6.3071688274       26.7564481300
  H         8.5726566290        6.6836997336       25.1928391387
  C         6.9194378645        3.7269178492       26.0137986068
  C         7.5691093796        4.3004259073       23.9777204129
  C         5.9648172895        5.9302017502       24.8435674205
  C         7.1518349143        2.6324286232       25.1947923924
  C         6.5231866255        3.3239253841       27.3139028814
  C         7.6626552952        2.9513328856       23.9547297636
  C         8.1066418121        4.9655977242       22.9056377956
  H         6.2323444040        6.5101729795       23.9529381652
  H         5.8126339333        6.5651976966       25.7564535199
  C         4.6703419258        5.1262651559       24.5272980572
  S         6.8577365521        1.1054979687       26.0122156494
  C         6.4296688523        1.9590729322       27.4763442398
  H         6.3939281753        4.0672462917       28.0261043686
  C         8.1477319163        2.3558820187       22.8522306137
  H         8.3839915775        6.0565573797       23.0321314265
  C         8.6242003698        4.3387438199       21.7654903514
  H         4.6839456530        4.6004127304       23.6075256050
  H         4.5388209123        4.3501762473       25.2926500536
  C         3.4094440796        5.9679944405       24.3814598414
  C         5.9045068515        1.2704621583       28.6883223166
  C         8.5687000529        3.0123938392       21.6883363404
  H         8.1443981180        1.2766785034       22.7855265516
  C         9.2014055893        4.7195552883       20.5780769328
  H         2.6951946361        5.4830847842       23.6770302773
  H         3.8091979834        6.8719665606       23.9666649690
  C         2.7929242619        6.3494521480       25.7650049263
  C         5.8732068692       -0.0620275176       28.9492011228
  C         5.3202382534        2.1661554230       29.7282285317
  C         9.0377984026        2.2980382372       20.3981138651
  C         9.3802839240        3.6470485779       19.7787371618
  S         9.5910216540        6.2491760823       19.7754617426
  H         2.0062069798        7.1015277180       25.5682255308
  H         3.4881015524        6.9443271907       26.4112751093
  C         2.0097465106        5.1783325112       26.3982467303
  N         6.2551020980       -1.0558812927       28.0225692775
  C         5.5693911788       -0.5868992018       30.1975255234
  C         4.9768406861        1.6627092975       30.9474233236
  H         5.3408555969        3.2109185351       29.6321496420
  C         7.8473089418        1.5269229325       19.7006905651
  C        10.2629029024        1.4263005282       20.4906356537
  C         9.9317016565        4.0257743899       18.5231649863
  C         9.8404202386        5.3922621271       18.2941800620
  H         1.1429653059        4.9877682615       25.7981296669
  H         2.7393998778        4.3888890820       26.5056417923
  C         1.3871920799        5.6756809761       27.7365364922
  S         6.1479044837       -2.5026666515       28.8195880287
  N         5.7402668245       -1.9458474836       30.3013718079
  C         5.1596701927        0.2270225560       31.3083134764
  H         4.6150246993        2.3166495921       31.7374227418
  H         7.4319186336        0.7434465507       20.3225401452
  H         8.3051422850        0.9594749404       18.9051998205
  C         6.6759507660        2.4385082999       19.1323263476
  H        10.4466233248        1.0189334446       19.4997449784
  H        10.0883031949        0.6247924842       21.1977184858
  C        11.5871693568        2.2334403384       20.9280721732
  H        10.1392894034        3.2496422237       17.8049996852
  C        10.1048381345        6.1256576223       16.9383474043
  H         0.5328774721        5.0727280778       27.7188438048
  H         1.1232724331        6.6687822305       27.4985105767
  C         2.1399459336        5.5649613708       29.1065116426
  C         4.8472045241       -0.4596290937       32.5372763446
  H         7.1061566203        3.2227498037       18.5820569273
  H         6.2112240006        3.0563623637       19.8868542102
  C         5.5509330061        1.6622782756       18.4829377863
  H        11.4927335252        2.9153374729       21.7492079899
  H        11.8513106697        2.9015070758       20.1068853535
  C        12.7988308270        1.3517146833       21.2304153641
  C        10.1330130131        7.5189535252       16.7350019242
  C        10.2420637981        5.3937476997       15.6758041818
  H         2.6746925199        4.6175154068       29.1667738534
  H         2.9259463322        6.3789423926       29.1618698466
  C         1.1353594220        5.6687776481       30.3251697671
  H         5.0217156137       -1.4765620052       32.5502082346
  C         4.5159554800       -0.0224813078       33.8343765612
  H         5.1144522416        1.0407392963       19.2582379040
  H         6.0012803452        0.8611551313       17.8585492228
  C         4.5324127860        2.5254232035       17.7268286317
  H        12.6269370342        0.8376571662       22.1304301141
  H        12.7709814579        0.4840528107       20.5305710993
  C        14.1136125542        2.1414739097       21.1607488383
  N        10.0873603343        8.5003226585       17.7663765726
  C        10.4016937693        8.1855686567       15.5531039208
  C        10.4866786202        6.0614973820       14.4639411136
  H        10.1900267588        4.2691641726       15.6591852009
  H         0.7765219004        6.6878691162       30.4528117593
  H         0.2377252804        5.1250811958       30.1074495538
  H         1.6590836445        5.2175762440       31.1968867432
  S         4.1650456440        1.6208623182       34.2194793283
  C         4.4192805879       -0.9699651445       34.9281048187
  H         4.6069666863        3.4453573368       18.2388833434
  H         4.9298918497        2.7759156393       16.7599140482
  C         3.0162706191        2.1626995729       17.7450605726
  H        13.9816422269        3.1333302139       20.6154706725
  H        14.8461830415        1.5104914593       20.6095178182
  C        14.6841702929        2.6023153014       22.4737223449
  S        10.4681193027        9.9992836437       17.1409540444
  N        10.6425371068        9.5347677019       15.6333709026
  C        10.5980926182        7.4710363922       14.3367457920
  H        10.5549606436        5.4746991238       13.5232895541
  C         3.9669767559        1.0389254000       35.8972948062
  N         4.0498840627       -0.3480600484       36.0049490849
  O         4.4213277590       -2.1976703256       34.7601818921
  H         2.4604455657        2.9011410157       17.2592135466
  H         2.5783696600        2.1300035233       18.7309171569
  C         2.8661997826        0.8209955929       17.0146239070
  H        15.2626287691        3.4694310079       22.2561271514
  H        13.9287935969        3.1438504254       23.0629789809
  C        15.3274441766        1.5637985987       23.3355607078
  C        10.8353988521        8.2075744752       13.1776906541
  S         3.3590528106        1.9227422663       37.3114899836
  C         3.9943502889       -1.0923893922       37.2590601189
  H         1.9138155416        0.7887687918       16.3260014986
  H         3.7509375272        0.6010575215       16.4519540250
  C         2.5942568289       -0.2854756504       18.0227738441
  H        15.5054609989        0.7077138006       22.7377162834
  H        14.7304124527        1.2900450964       24.2164875862
  C        16.5956246092        2.1667900702       23.8625567421
  H        10.8864349060        9.2336774833       13.4065707757
  C        11.3687978117        7.8978765891       11.9668921244
  H         3.4145597207       -0.6679790089       38.0875668320
  H         3.6628398547       -2.0881369796       37.0083105348
  C         5.4423548360       -1.2527766225       37.8122819186
  H         1.9105665389        0.1310251263       18.7847429471
  H         3.5048737605       -0.4535902006       18.6176955030
  C         2.0187572260       -1.5576427667       17.4199661982
  H        16.3998362075        3.1469286731       24.3059046588
  H        17.0650415041        1.5262969951       24.5962797540
  C        17.7347816722        2.3095259835       22.7541745275
  S        11.8287820661        6.2976019241       11.4877393608
  C        11.5855350540        9.0120144810       10.9978241708
  H         5.7126170680       -0.2910636467       38.2432928414
  H         5.6601790749       -2.0012343967       38.6277842173
  H         6.1209596762       -1.5741336736       36.9939899217
  H         0.9259053931       -1.3987620892       17.3388164919
  H         2.1494917909       -2.3233417824       18.1489230448
  H         2.3956996620       -1.7854652660       16.4301097457
  H        18.7333066616        2.3492564366       23.1865280640
  H        17.6638819452        3.1865089038       22.1167399706
  H        17.9183561714        1.4389157148       22.0670544932
  C        12.3805746764        7.1438599779        9.9868236509
  N        12.0783885413        8.4630959959        9.8690922342
  O        11.1677158144       10.1484152207       11.2094430329
  S        13.2629275404        6.3000828472        8.6480147016
  C        12.3949534894        9.2081069584        8.6847497732
  H        12.3061371899       10.2177833167        9.0189847460
  H        13.4268730089        9.1639961998        8.4260993063
  C        11.4409266809        8.7822841076        7.5958749489
  H        11.2475759106        9.5971713518        6.9280353810
  H        11.9888515791        8.1252973188        6.9367131576
  H        10.5341677407        8.2790565579        7.9750690702
  H        -3.5935323951       14.5889631647       16.3696105788
  C        -3.3726172907       13.5704660390       16.2803633530
  H        -4.2473954196       12.9873098455       16.1302087935
  C        -2.4302077379       13.2150984529       17.3927366388
  C        -2.7999179950       13.4316862700       14.9625707245
  C        -2.9243844663       13.4849121683       18.8042326751
  H        -2.1433499850       12.2254586330       17.2595574841
  H        -1.6227826860       13.9614617417       17.3385405715
  H        -3.0302561197       12.4518016986       14.4324150838
  H        -3.1201097152       14.1673870042       14.2403166191
  H        -1.7111678808       13.5506246551       15.0402473380
  C        -1.8258529298       13.4534219927       19.9063178968
  H        -3.5608355523       12.6474547772       19.0580111076
  H        -3.5713953655       14.3135049791       18.8012267391
  C        -2.4459075417       13.3867040815       21.3055932607
  H        -1.1596339299       12.6956485977       19.7224965086
  H        -1.2716456875       14.3837519212       19.7411480392
  C        -1.4610048655       12.7630030532       22.3327197718
  H        -3.4043375738       12.9479678660       21.2324833851
  H        -2.7234219831       14.3507028270       21.7316665287
  C        -0.1847036276       13.5876722656       22.6612461816
  H        -1.8515163206       12.4819030609       23.2933442171
  H        -1.0749308811       11.8754593838       21.8566140985
  C         0.9175926495       12.9009662429       23.4362744778
  H         0.3186650616       14.0035319098       21.7570303904
  H        -0.7155951000       14.3168015161       23.1765714659
  C         1.2372639276       11.5899975632       22.7675970863
  C         0.4751943906       12.2000530088       24.6553302319
  C         2.1939721932       13.7425971048       23.6223858588
  C         0.9989233840       10.5160816292       23.6376650299
  C         1.7266105474       11.1643506664       21.5686783141
  C         0.5544120884       10.8985578575       24.8678724887
  C         0.1416722176       12.9348097071       25.8036816771
  H         2.4967107525       14.3088261723       22.6653795841
  H         1.9917597360       14.5400937283       24.2319919028
  C         3.4088690777       12.9565909171       24.0624455303
  S         1.3394807223        8.9479962570       22.8876239632
  C         1.8510043124        9.8121544950       21.5311461285
  H         2.0371693276       11.8875798185       20.8114719329
  C         0.1286356465       10.3401708562       25.9846917045
  H         0.0748279380       13.9810570574       25.7844317306
  C        -0.1163981677       12.3563338096       27.0049743602
  H         3.6161155376       12.1035411436       23.4157428231
  H         3.1994346295       12.4612071521       25.0548056016
  C         4.7485112110       13.8283607288       24.1746926490
  C         2.3391405336        9.1532666523       20.3281553625
  C        -0.1834843454       10.9958873569       27.1938893457
  H         0.0857656210        9.3120745601       26.0369206852
  C        -0.5098990314       12.8489904096       28.2104196431
  H         5.3496680878       13.3803071067       24.9569891709
  H         4.3874206553       14.6919505577       24.6502699023
  C         5.5602366993       14.0889103665       22.9792959108
  C         2.4217276299        7.7555398114       20.0363548378
  C         2.8705361583        9.9882106992       19.2144715555
  C        -0.5724735179       10.2911851219       28.4497220005
  C        -0.7647798433       11.7718833029       29.0303816896
  S        -0.7844045392       14.3878835041       28.9857688878
  H         6.1874494845       14.8991152731       23.1765925305
  H         4.8733373600       14.4550481560       22.2463181442
  C         6.3294454491       12.8568043817       22.3292183355
  N         2.2478382985        6.7208753444       20.9469202407
  C         2.8294639721        7.2738957614       18.7693029099
  C         3.2454794831        9.5434666482       17.9274216611
  H         2.9915586202       11.0276602626       19.3344505652
  C         0.6434012292        9.5380561467       29.1816209286
  C        -1.8578461143        9.4393752891       28.2915966960
  C        -1.1199536440       12.2117981967       30.3440488100
  C        -1.1373396043       13.5743617908       30.4782242359
  H         7.0592991293       12.4830177611       23.0693079372
  H         5.5544894447       12.0148342997       22.1377075146
  C         7.1687900990       13.2173164901       21.0471069070
  S         2.3223458320        5.3326127721       20.1832388354
  N         2.8259017769        5.8358182348       18.7372303167
  C         3.1142909475        8.0883358292       17.6007377613
  H         3.5681502665       10.2143758290       17.1440086757
  H         1.0329450014        8.7168908749       28.6162407677
  H         0.2678849819        9.1109376144       30.1442948792
  C         1.8720282685       10.3705219875       29.5398023837
  H        -1.5870671919        8.5148352327       27.7212032867
  H        -2.1830179008        9.2036001406       29.2922709251
  C        -3.0742498633       10.1536662393       27.6556958774
  H        -1.4591667546       11.4002195742       31.0534829592
  C        -1.6001506946       14.3063030963       31.6652809341
  H         7.8655044340       12.4024331470       20.9496556756
  H         7.7680890189       14.1456509784       21.2680799758
  C         6.4256116177       13.3726247067       19.7162414792
  C         3.3983032107        7.4486753682       16.3536612340
  H         2.3276197987       10.9641769917       28.7595603397
  H         1.5798499078       10.9494675326       30.4112314748
  C         2.9523891017        9.4558079767       30.1165729595
  H        -2.7539195709       10.4799446730       26.6328444960
  H        -3.2447586624       11.0011139233       28.2207733260
  C        -4.2736386016        9.2557048336       27.5327478127
  C        -1.8696213959       15.7202223005       31.8070672556
  C        -1.6577203004       13.5829310689       32.9773791353
  H         5.7584946276       12.4757920652       19.4344365602
  H         5.7973289595       14.3163841683       19.8366534114
  C         7.4986311752       13.4903789739       18.7190354042
  H         3.2492370966        6.3971169255       16.3477879373
  C         3.7941629337        7.9294992288       15.0832081801
  H         3.0322299274        8.6955712697       29.3542658001
  H         2.6332402868        8.9116564739       31.0191176496
  C         4.2876606297       10.0787425078       30.5718604538
  H        -4.2429088985        8.6161331852       26.6521200739
  H        -4.4095218163        8.6470051728       28.3570076372
  C        -5.5223571132       10.0745190169       27.3160170122
  N        -1.7999381200       16.6723659574       30.7868613705
  C        -2.1572533226       16.3664804626       33.0392314976
  C        -1.9820806395       14.1847840765       34.2149347757
  H        -1.3468680963       12.5878050299       33.0594573793
  H         7.0579952879       13.9505743278       17.8458913466
  H         8.2883883927       14.1490393335       19.1400125501
  H         7.9558843152       12.5047432034       18.5120092287
  S         3.9584914179        9.5909752215       14.5824354305
  C         3.8643438223        6.9153978258       13.9990650716
  H         4.4304264379       11.0756260243       30.1741590315
  H         4.2399363526       10.2306959641       31.6727490982
  C         5.5266345975        9.1638645108       30.3458226183
  H        -5.2131313513       10.8944612283       26.7517758277
  H        -5.8192693287       10.4458684970       28.2696338880
  C        -6.7355616474        9.2629767024       26.7734822792
  S        -1.9539582549       18.1603880733       31.3568601081
  N        -2.2793617013       17.7912674254       32.9165807504
  C        -2.2535257177       15.6887158185       34.2821990983
  H        -1.9133707875       13.5573904991       35.1019909590
  C         4.1176960675        8.8465330638       12.9455974279
  N         4.1202842741        7.5102626060       12.8401621519
  O         3.8376842653        5.7115476965       14.2121857058
  H         6.4320997423        9.7414830798       30.2702074404
  H         5.4874654407        8.6421799538       29.3619456571
  C         5.6254874369        8.2628636401       31.6091856662
  H        -6.6002592655        8.7666713464       25.8440475107
  H        -6.9938728651        8.4764211113       27.5537930085
  C        -7.9145507169       10.3099648412       26.6827005446
  C        -2.5911179185       16.2884978980       35.5132995339
  S         4.6483573808        9.7700962450       11.5169460486
  C         4.2245610816        6.7840734357       11.5750230337
  H         5.8548953632        8.8907813644       32.4277393938
  H         4.6649175689        7.8217392906       31.6542062874
  C         6.6896838344        7.2074050950       31.4541718366
  H        -7.5200111109       11.2364731426       26.1935738499
  H        -8.1061965259       10.5845112504       27.6904396544
  C        -9.2221005701        9.7875906247       26.1109653806
  H        -2.3691508376       17.3699210229       35.4790661931
  C        -3.1203151539       15.9358364413       36.7144786002
  H         5.2092941280        7.0180213112       11.1578566058
  H         4.2731696984        5.6637825471       11.6269991828
  C         2.9480763039        7.0504397580       10.6933499989
  H         6.8961237194        6.9200349574       32.4745639039
  H         7.5183368588        7.6775455653       31.0188074024
  C         6.2562711254        5.9680768066       30.5702434513
  H        -9.4103153735        8.7921958994       26.4629392900
  H        -9.8825461546       10.6851170389       26.3755374798
  C        -9.0401568671        9.6914143755       24.5792648911
  S        -3.8059887006       14.4204130881       37.1679839697
  C        -3.3136130038       16.9476776209       37.7363587035
  H         2.3792826161        7.8584860694       11.1761918255
  H         3.1518880796        7.2934087660        9.6864502962
  H         2.3324058453        6.1083726458       10.6185948384
  H         7.0560882611        5.4167613738       30.0977555079
  H         5.5966077309        6.3588016080       29.8416246203
  H         5.7020683024        5.3028627660       31.2268532056
  H        -8.7627910806        8.6599680286       24.2279491271
  H        -8.3336095709       10.3965075870       24.2793366844
  H        -9.8683640365       10.0119915153       24.0712589906
  C        -4.3180405616       15.1606643895       38.6925391818
  N        -4.0145466654       16.4635377674       38.7965495378
  O        -3.0494008995       18.1858600313       37.5260661532
  S        -5.2287491825       14.3121116515       39.8609923055
  C        -4.1048196413       17.2844836309       40.0400660189
  H        -4.3316812947       18.2105503789       39.5750683151
  H        -4.9136929332       16.8752881509       40.5694986264
  C        -2.8184671160       17.2662287506       40.8036356793
  H        -2.7999465723       17.5989188206       41.8310295920
  H        -2.4273335510       16.2875352565       40.8992751264
  H        -2.1131743536       17.9160941801       40.2262658986
