352
 i =     1300, time =     1300.000, E =        50.3162990431
  H        12.2219811710        6.9972872325       32.1572565345
  C        11.6886814869        6.0135891667       32.2215623394
  H        12.2872705833        5.0680169030       31.9486004913
  C        10.3994936336        5.9940390786       31.2498660797
  C        11.3628813925        5.8708264035       33.7190372781
  C        10.7569375327        5.5470889808       29.8605583328
  H         9.6000720310        5.3018379654       31.6385858394
  H         9.9371269036        7.0215287682       31.3674532531
  H        11.7138109666        6.7248606579       34.3022599488
  H        10.3160951621        6.0559962890       33.8387490704
  H        11.5084315884        4.8864366303       34.1467276251
  C         9.6977721310        5.8099457908       28.8460609930
  H        10.8785852666        4.4698973090       30.0139881416
  H        11.7305344121        5.9985090026       29.5871518409
  C        10.3250326620        5.9861929313       27.4117560366
  H         8.9037488630        4.9693259974       28.6010910526
  H         9.0911677779        6.7685424785       29.1212296647
  C         9.4829524103        5.2012407542       26.3352248267
  H        11.1801182221        5.5461619750       27.2973599720
  H        10.3611881757        6.9611480028       27.1232701747
  C         8.2527401408        5.9846538636       25.9531269357
  H        10.0095183578        5.0549398994       25.4701591973
  H         9.2941990976        4.1123892864       26.7601562881
  C         7.1066516006        5.3254569523       25.2729624593
  H         7.9961330206        6.3897836995       26.9034765793
  H         8.6316964877        6.8662091088       25.4397890775
  C         6.7245561574        3.9756310852       25.9167958501
  C         7.4752315148        4.6299719028       24.0651017270
  C         5.8091904718        6.2747426986       25.1985296456
  C         6.8942069590        2.8049066359       25.1483779925
  C         6.2491915269        3.5215011819       27.1832452315
  C         7.4631224806        3.2066123355       23.9538127738
  C         7.9238311226        5.3273617354       22.9707230630
  H         6.0736281977        6.9779325263       24.4775155216
  H         5.5727567427        6.7048684665       26.1112033047
  C         4.5793517415        5.5353800344       24.7096557245
  S         6.7714758435        1.2918046694       25.9743685726
  C         6.1454444045        2.1012212724       27.2895034859
  H         6.0477567548        4.2967041066       27.9068113219
  C         7.9502992108        2.6042871927       22.7772235555
  H         8.0892136543        6.3686710626       23.0367841867
  C         8.3561051595        4.6692987761       21.8131324534
  H         4.8288949502        5.3222951350       23.6972445093
  H         4.1994299187        4.7031016358       25.1645214780
  C         3.3161022333        6.4233385939       24.6285377737
  C         5.7371974174        1.3657023633       28.5535424536
  C         8.4008372873        3.3453718168       21.6643397232
  H         7.8765418020        1.5290556171       22.7410395089
  C         8.9597716273        5.0644474697       20.6540612392
  H         2.4969064284        6.1265021947       23.9675932167
  H         3.5115849734        7.5035366960       24.3807713745
  C         2.6910524973        6.6681572168       26.0162478475
  C         5.6568874637        0.0091401207       28.7496546794
  C         5.2692598522        2.2045942755       29.7561243269
  C         9.0206783641        2.6721731881       20.4757673979
  C         9.1901174275        4.0535931519       19.8112512357
  S         9.5655252738        6.5863170032       20.0369837901
  H         2.0231600653        7.5402985044       25.7868445329
  H         3.5059498633        6.9351647232       26.6510628409
  C         2.0686677657        5.4120059775       26.5530801083
  N         5.8932052415       -1.0010054164       27.7929352640
  C         5.4672349649       -0.4726015351       30.0126264724
  C         4.9111897314        1.5693144055       30.9271026439
  H         5.0740499171        3.2941551087       29.7290188897
  C         7.9133728875        1.6060482581       19.8699480283
  C        10.4338632779        1.9504367739       20.6790842400
  C         9.8705255119        4.4822123505       18.6526245820
  C         9.9191067472        5.7930822708       18.5601689914
  H         1.6898728048        4.7737337395       25.8849109239
  H         2.9621079163        4.8075952046       27.0047121377
  C         1.1513953680        5.7028338162       27.6929037271
  S         5.9373729154       -2.4013689110       28.5521528673
  N         5.7605565600       -1.9221993966       30.0424665931
  C         5.1171711936        0.1545397294       31.1760863070
  H         4.3578669640        2.2633043108       31.6110232346
  H         7.5825271913        0.8805390199       20.6395515632
  H         8.4531819458        0.9475417013       19.0436550711
  C         6.7532014459        2.4315098806       19.3102335254
  H        10.8240504064        1.5702296522       19.7478979643
  H        10.2514419741        0.9886455223       21.1930724686
  C        11.4401933179        2.8257464782       21.3381708687
  H        10.2158189306        3.6425708372       17.9751734204
  C        10.0563352904        6.5519689299       17.2476482587
  H         0.2436175476        5.0360100544       27.7189876413
  H         0.7265430962        6.7660376440       27.5461941073
  C         1.9400909393        5.5887663114       28.9610118492
  C         4.8841945930       -0.5034174239       32.3542405429
  H         7.0277435441        3.1127127637       18.5950809253
  H         6.4278268762        3.0498712411       20.1148299349
  C         5.6658617602        1.4679888015       18.8670615219
  H        11.1471805465        3.2104847506       22.3805283832
  H        11.7598208158        3.6696538034       20.7047164204
  C        12.7165106934        1.9905280025       21.7822567823
  C        10.1308411814        7.8895957787       17.0692465914
  C        10.0918237931        5.7322383579       15.9951481744
  H         2.3405283737        4.6478407197       28.9074122776
  H         2.7629226560        6.1359253799       28.8642354566
  C         0.9368015918        5.7269931741       30.1255717168
  H         4.8246295210       -1.6118470724       32.3900317178
  C         4.6010228593       -0.0578913709       33.6539768741
  H         5.3820030923        0.9734038937       19.7359851981
  H         6.2073761725        0.7821282852       18.2953423849
  C         4.4155635541        2.1811284720       18.2496907493
  H        12.5778931153        1.0697284077       22.3222587141
  H        13.2644470085        1.5841180326       20.9096487721
  C        13.8413141464        2.7328581866       22.5807177518
  N         9.9487606926        8.8465076995       18.1289367291
  C        10.4237699581        8.4719657720       15.9008021493
  C        10.2487334115        6.3125463575       14.7479771738
  H        10.0538659537        4.7149662219       16.0542492101
  H         1.4293027594        5.2442102892       31.0497373312
  H         0.8880008737        6.7740076223       30.3872040022
  H        -0.0845191294        5.6595735253       29.9019313441
  S         4.4903141339        1.6170513864       34.2997274277
  C         4.5389523258       -1.0702772890       34.7682670488
  H         4.2440632873        3.1965265998       18.7064582972
  H         4.8558996428        2.0987046158       17.2045084844
  C         3.2966201464        1.2085605400       18.3550459884
  H        13.3868358103        2.9842525149       23.4862698556
  H        14.0024581305        3.6835186538       22.0644302107
  C        15.0651928277        1.8723663364       22.7173361590
  S        10.1764378825       10.3347135983       17.5202897477
  N        10.5077004760        9.8879287464       15.9845751321
  C        10.5770181382        7.7815814049       14.6330905170
  H        10.3208254832        5.6242816199       14.0283706179
  C         4.2213331798        0.9281764225       35.9027097095
  N         4.1673681461       -0.4479617733       35.9235468948
  O         4.5030161078       -2.2433129417       34.5481946343
  H         2.3636607349        1.7167409522       17.9978406960
  H         3.1921628765        1.0972171437       19.5284636687
  C         3.3729638554       -0.1500678897       17.5216360400
  H        14.9202736737        1.0628116273       23.3932613031
  H        15.4007732996        1.4821526612       21.8231888975
  C        16.1397299323        2.6958801218       23.4445004915
  C        10.8580664547        8.5356698013       13.4905672576
  S         3.8578796401        1.7508671881       37.3208449804
  C         4.1184152700       -1.1455886772       37.2326668153
  H         3.7196260677        0.0331330242       16.5833228988
  H         4.2372276903       -0.6498408029       17.9639419185
  C         2.2313807544       -1.1911517548       17.8762696508
  H        15.7040841704        3.0628957975       24.3284289135
  H        16.3821708512        3.6376920933       23.0132145833
  C        17.4212240515        2.0536208528       23.8566523796
  H        10.9440466247        9.6050410073       13.5261224602
  C        11.3663235691        8.2166927917       12.3160729075
  H         3.5126016024       -0.5722787334       37.9315827782
  H         3.7558234577       -2.1359349253       37.0524712365
  C         5.4851101322       -1.2033480017       37.8562408947
  H         1.2098718708       -0.7377195210       17.8810803632
  H         2.2440288952       -1.3600135525       18.9715207535
  C         2.2468090950       -2.3593861995       16.9344350399
  H        17.7894355383        2.8011435983       24.5496108606
  H        17.1981668715        1.2825051209       24.4350474332
  C        18.4748105944        1.8127068955       22.5930934597
  S        11.6993756311        6.5952299734       11.8127460693
  C        11.7177521555        9.2277351295       11.2542778662
  H         6.0313700503       -0.3040523555       37.7074190667
  H         5.2188596866       -1.2239042924       38.9035235552
  H         6.0782730711       -2.1144679413       37.4807528647
  H         1.2494560287       -2.8820111844       17.1199884862
  H         3.0101971398       -3.1441843551       17.1326867936
  H         2.3343754004       -1.9663990516       15.8680802504
  H        18.0706453940        1.1526732684       21.9156825292
  H        19.5089554025        1.4470264740       22.8825349387
  H        18.7006799395        2.7914405375       22.1703463368
  C        12.2451689553        7.2245584208       10.2650040515
  N        12.1808216305        8.5570973806       10.2483874499
  O        11.3019741115       10.3464928981       11.3673575827
  S        12.7598594238        6.1974346059        8.9835910629
  C        12.4703923648        9.3076756002        9.0213859446
  H        12.8590161301       10.3106326438        9.2391973155
  H        13.3357445423        8.8799411555        8.4841120672
  C        11.2478377270        9.4291340591        8.1362094810
  H        10.5526710259        8.8383316607        8.7585326575
  H        10.8964698228       10.4411974729        8.1102901477
  H        11.4753667782        9.1547209850        7.0734288709
  H        -3.4006057606       14.5863004306       15.9266621007
  C        -3.1261924726       13.4782626046       15.9996095169
  H        -3.9841670502       12.9282092291       16.3318396759
  C        -2.1006710680       13.3366248210       17.1562292462
  C        -2.6185557504       12.8693606021       14.7542616416
  C        -2.5017801999       14.0470389609       18.4078717641
  H        -2.0439261674       12.2155177438       17.3881553651
  H        -1.1177073929       13.6454439447       16.7818645835
  H        -1.6192096651       13.2091649213       14.5963677270
  H        -2.3013552808       11.8516489616       14.8970344716
  H        -3.3533831298       12.7078649511       13.9440189247
  C        -1.4838815704       13.6208657614       19.5778238034
  H        -3.5150033738       13.8746449641       18.6067603301
  H        -2.0719581524       15.0261746910       18.3819052184
  C        -2.2557698423       13.5692402718       20.8500439468
  H        -0.8826384654       12.6625608697       19.3834510803
  H        -0.6573896563       14.5076163699       19.6530125677
  C        -1.4476458649       12.8086981862       21.8907011275
  H        -3.3569912296       13.2000513958       20.9121628136
  H        -2.5081061381       14.5028771538       21.3670594583
  C        -0.3144126587       13.7570937561       22.5212654065
  H        -2.0173343075       12.5225558545       22.7700986362
  H        -1.0917031395       11.8706740537       21.4221929934
  C         0.8033223608       12.9770734756       23.3984499284
  H         0.1270546551       14.2835181842       21.6753360347
  H        -0.8910109698       14.4563527756       23.1034756551
  C         1.2078146865       11.6573264734       22.7486434825
  C         0.3512704096       12.2868313914       24.6037775798
  C         1.9885908461       13.9729246600       23.6424862401
  C         0.8936194090       10.5266761211       23.5113683858
  C         1.8272741516       11.2399251067       21.5219362137
  C         0.3673701230       10.9392244020       24.7806246821
  C        -0.1063642219       12.9614816299       25.7454461977
  H         2.4897037231       14.2947787084       22.7257165563
  H         1.7038735462       14.8300639379       24.1875367065
  C         3.2146707550       13.2091037101       24.3262085726
  S         1.3100460630        9.0483264735       22.8124123813
  C         2.0216735693        9.8222925434       21.4826230484
  H         2.0546920720       11.9459410670       20.7726654285
  C        -0.0928656951       10.3195863507       25.9665646667
  H         0.0484079391       14.0311268364       25.6254412064
  C        -0.4325857991       12.3708776272       26.8864649837
  H         3.3963872345       12.3121926468       23.8007224220
  H         2.9351427743       12.8524359175       25.3490713123
  C         4.5176821889       13.9357272016       24.5619767997
  C         2.5218857143        9.1536029963       20.2598023761
  C        -0.4359393818       11.0375016272       27.0530703352
  H        -0.1576435808        9.2781954286       25.9898571248
  C        -0.7103305296       12.8196949001       28.1496719137
  H         5.2032154010       13.3489644455       25.3065221388
  H         4.2443158689       14.7720473513       25.2375041159
  C         5.1999308893       14.4168018278       23.3851875917
  C         2.4556446599        7.8153170629       20.0620084196
  C         2.9105692137       10.0149065153       19.1295589181
  C        -0.7539242581       10.4339964639       28.3649913400
  C        -0.8677592592       11.7661365210       29.0257029578
  S        -0.9694528334       14.3486765114       28.8291100629
  H         5.9334192527       15.2114369505       23.6009582278
  H         4.4195965291       15.0238094756       22.6723724501
  C         5.8781839501       13.3395098341       22.5317132811
  N         2.1363278991        6.8152917709       21.0267354903
  C         2.8459247875        7.2713313104       18.8658960425
  C         3.2658752690        9.5427714340       17.9150592126
  H         2.9086289812       11.1434535025       19.2204151607
  C         0.4335917994        9.6997805722       29.0841115391
  C        -2.0048672551        9.5901825727       28.1976015607
  C        -1.3235838344       12.2680549115       30.2973666909
  C        -1.3069518566       13.6079699075       30.3573323651
  H         6.6715244744       12.9139701204       23.0350156866
  H         5.2345035825       12.5538693459       22.2715799244
  C         6.4940410191       13.9910970073       21.2379000139
  S         2.3393567371        5.3521916023       20.3223257176
  N         2.8416746551        5.8687861906       18.8258825036
  C         3.1908586008        7.9957621098       17.6144157289
  H         3.6715920276       10.2461485008       17.2070962473
  H         0.6111527106        8.7623386996       28.4636135724
  H         0.0299710549        9.5044535500       30.0593855348
  C         1.6993825344       10.4628979508       29.1968270249
  H        -1.8274302775        8.7401960134       27.6243088683
  H        -2.2196233489        9.2213714097       29.1603480986
  C        -3.2820341311       10.3945965494       27.7022352311
  H        -1.6040288426       11.4891599282       30.9795079151
  C        -1.5907699159       14.3132432822       31.5861057330
  H         7.4971486870       13.7430547964       21.1803518940
  H         6.1572517109       15.0508473768       21.2134682923
  C         5.7097189631       13.5719130751       19.9726852715
  C         3.4023210272        7.3670214015       16.4169035971
  H         2.1491032678       10.6495075896       28.1648928887
  H         1.5622069448       11.4767303930       29.5157176714
  C         2.7662616083        9.8190496013       29.9501762450
  H        -3.1006980344       11.0127691870       26.7964500204
  H        -3.6042182992       11.0180851032       28.4901873049
  C        -4.4512159396        9.4965075434       27.3142916607
  C        -1.8114600390       15.7238413256       31.6549928978
  C        -1.7167551628       13.6094279627       32.8726363313
  H         5.1930637338       12.5997315496       19.9845130127
  H         4.9092201871       14.3302157089       20.0255524056
  C         6.4810530183       13.6485466992       18.7358783263
  H         3.0411906819        6.3179851674       16.4425028771
  C         3.5897925808        7.7337689456       15.0644690230
  H         2.8799543259        8.8660108283       29.6466174504
  H         2.4807946538        9.4447079449       30.9004200700
  C         4.1598394104       10.5716062086       30.1379025185
  H        -4.2180700317        9.1617000162       26.2782247107
  H        -4.5608878467        8.6361841474       27.9632716207
  C        -5.7502103013       10.1685673738       27.2866604072
  N        -1.6090565700       16.6510167844       30.6895058397
  C        -2.1768154545       16.2709249525       32.9241706608
  C        -2.0917087270       14.2128810046       34.1131593545
  H        -1.4164862562       12.6044103993       32.8685102585
  H         5.7472291827       13.4677176913       17.9781305631
  H         7.0110061764       14.6483465450       18.5811167123
  H         7.2518633523       12.8687644236       18.5490119986
  S         3.8462747079        9.4132068294       14.5818563155
  C         3.6436966427        6.7172600093       14.0783919474
  H         4.2223248065       11.4661354243       29.4602608775
  H         4.2636750375       10.8666782197       31.1210863592
  C         5.3484609874        9.6145440109       30.0264532696
  H        -5.5487723913       11.0546658227       26.6837626820
  H        -6.0295412922       10.5107629326       28.3625298364
  C        -6.7091333769        9.2540873993       26.4809113748
  S        -1.9045572794       18.0931698346       31.3702543549
  N        -2.2735263815       17.6696698253       32.8311264466
  C        -2.3476398588       15.5942232419       34.2064374515
  H        -2.2583283939       13.5308216582       34.9468631268
  C         3.9484229438        8.6259844842       12.9701821240
  N         3.8927289260        7.2985679502       12.9312788927
  O         3.7583547739        5.5382827045       14.3692687146
  H         6.2455453681       10.1921755399       29.8591379305
  H         5.2114705258        8.9818400012       29.0299888348
  C         5.4496434320        8.5639170297       31.1204858915
  H        -6.1764978446        8.7661185539       25.7393403297
  H        -7.1070473491        8.6465361013       27.2446870930
  C        -7.4929987567       10.1527842412       25.6941437148
  C        -2.7289596908       16.2865204664       35.3245715531
  S         4.2840888445        9.5180459696       11.4991087295
  C         3.9163423067        6.5257528007       11.7502969067
  H         6.2048206288        8.8391705966       31.7599916227
  H         4.6709385777        8.5077226203       31.8648337004
  C         5.7872145182        7.2070009853       30.5326916712
  H        -7.0025732515       10.5067341457       24.7926118430
  H        -8.0467652740       11.0120206640       26.1293705920
  C        -8.7922798076        9.3740296136       25.3240679580
  H        -2.2848445860       17.2091413338       35.2399009812
  C        -3.2161576001       15.9370229449       36.5512712332
  H         4.5246460907        6.9401359246       10.9598130529
  H         4.3764020783        5.5187607464       11.8081214226
  C         2.5122147171        6.4681382731       11.0430251387
  H         6.5705263622        7.2444750519       29.7227123400
  H         4.8456650650        6.7788379177       30.2332335093
  C         6.4468650208        6.4730985879       31.6571498381
  H        -9.1797085701        9.6520421633       24.2764468921
  H        -8.5889480658        8.3720461422       25.3668394595
  C        -9.8462161482        9.5112888002       26.3498838594
  S        -4.0097271430       14.5294077679       36.9514279990
  C        -3.1834788247       16.9921375801       37.6628075419
  H         2.2629758616        7.3282896414       10.5244063197
  H         2.5395870049        5.7638891106       10.2603110860
  H         1.6267586105        6.2465041001       11.6085231446
  H         6.8532728337        5.4637919820       31.2915063629
  H         5.9415373366        6.3857749938       32.6952840061
  H         7.4181668432        6.8500508819       31.9428403326
  H       -10.0929300615       10.5100895170       26.7558512995
  H        -9.5645809983        8.8904070234       27.1921960424
  H       -10.7427542550        9.1505336709       25.9518306282
  C        -4.2494634347       15.1859231017       38.5832734249
  N        -3.7994732519       16.4463241899       38.7016760777
  O        -2.5005058125       18.0015266446       37.5295377173
  S        -4.9249405011       14.4198733828       39.9617397874
  C        -3.6166353432       17.1164812668       39.9833982272
  H        -3.7601225692       18.1519252110       39.7740063954
  H        -4.4588906607       16.8949619330       40.6380924829
  C        -2.2448943437       16.9730849251       40.5480283172
  H        -1.3582129513       17.4263742143       40.0058667834
  H        -2.0819810066       17.5425062093       41.5109151777
  H        -1.8278505722       15.9710025646       40.6484320910
