352
 i =    79200, time =    79200.000, E =        24.8974933517
  H        10.4328105705        7.5186800951       31.1933667321
  C        11.3997762090        7.2938348234       31.6110394897
  H        11.8482818663        8.2488771852       31.6737525065
  C        12.0717986284        6.4133595079       30.4839081272
  C        11.3706455435        6.4862534996       32.9155315226
  C        11.1811779847        5.4888756764       29.7063094630
  H        12.5844758211        7.0419431292       29.8185114935
  H        12.7749806335        5.7803425629       30.9153944893
  H        12.1751415014        6.9118067647       33.5144350027
  H        10.4108585998        6.7436676354       33.2961933320
  H        11.4103448959        5.4066224628       32.7159615813
  C        10.1923913624        6.0221223888       28.6501145436
  H        10.5515780260        4.8948103735       30.3581507384
  H        11.7888249686        4.6980281322       29.2474621216
  C        10.5514724132        5.5700075958       27.2556295301
  H         9.2040650857        5.6070934695       28.9225029635
  H        10.0935356101        7.1233076233       28.6097669340
  C         9.4415934456        4.9063733555       26.4906658432
  H        11.4515158568        5.0140958441       27.1537469840
  H        10.7969054216        6.5606079772       26.8780098761
  C         8.2524542056        5.7686036023       26.2044930053
  H         9.8595527322        4.4130598237       25.5995081845
  H         9.1977017977        4.1198172067       27.1548515383
  C         7.1334894653        5.0869950000       25.3981670990
  H         7.8685506094        6.0531610249       27.1569122838
  H         8.6787862369        6.6949754697       25.6961208020
  C         6.7746726548        3.7876543567       26.1285360615
  C         7.5952337949        4.3796131213       24.1733069247
  C         5.9419715333        5.9533856267       25.0977080046
  C         7.1058689994        2.7119454241       25.3604165784
  C         6.4542854365        3.3985290626       27.4452513932
  C         7.4760189173        3.0241003068       24.0771059650
  C         7.9820169892        5.0826497846       23.0111319000
  H         5.4523281183        5.6228477877       24.2521042334
  H         6.1801806132        7.0247216658       24.9437159234
  C         4.8199690853        5.9852081418       26.1470817350
  S         6.8188636805        1.2020246136       26.1645422857
  C         6.3935546806        2.0380541882       27.6315369172
  H         6.4559949427        4.2293359606       28.1651738511
  C         7.7713960503        2.3548339853       22.9187785419
  H         8.0281672922        6.1136046203       23.1170398163
  C         8.2945574729        4.4072711738       21.8399105120
  H         4.5114795198        4.9679417951       26.3369458033
  H         5.2592076808        6.4715120854       27.0050457134
  C         3.5847888882        6.6678023722       25.6338534294
  C         6.1604398891        1.3722685225       28.9256626148
  C         8.2657927443        3.0223801711       21.7625225958
  H         7.6701795638        1.2803500839       22.8342181897
  C         8.7411528863        4.7006105274       20.5760624547
  H         3.1035651808        6.0600403302       24.8278172062
  H         3.9104313741        7.5835279270       25.1842898248
  C         2.5940412246        7.0371418886       26.7572462308
  C         6.2096252594       -0.0058875249       29.2405441924
  C         5.8690085067        2.2978408415       30.0786814652
  C         8.6070794147        2.2719487218       20.5329812948
  C         8.8986035566        3.5785530677       19.7732577417
  S         9.1639363669        6.1357073306       19.7807336998
  H         1.6810384572        7.5497497431       26.3734571695
  H         3.0082820004        7.8675748564       27.2901789487
  C         2.3583567253        5.9317749452       27.7378798699
  N         6.6042931356       -0.9556032730       28.2925934395
  C         5.8622352023       -0.5237435312       30.4266790866
  C         5.5084584614        1.8488942743       31.2877055287
  H         5.7001022424        3.3149272192       29.9189640187
  C         7.4270652386        1.5029088767       20.0063253767
  C         9.8327921272        1.4422834124       20.7563706605
  C         9.2878179548        3.9542838666       18.4230439300
  C         9.4972129674        5.3316389233       18.2633690145
  H         2.6973642023        4.9409901930       27.3817206374
  H         2.9282168005        6.2215319667       28.6502046751
  C         0.9108662925        5.8032943513       28.0773779445
  S         6.6488381508       -2.3586844101       29.0358125194
  N         6.1396882206       -1.9180107898       30.5198902330
  C         5.5878315532        0.3301802510       31.4954289219
  H         5.1950492246        2.6176745995       32.0395994965
  H         7.1377615177        0.7873610220       20.7294335438
  H         7.7683382778        0.8665791819       19.1992014244
  C         6.2356651431        2.4032679220       19.7348887472
  H        10.1662431066        0.8731823482       19.8830056970
  H         9.6703857935        0.6251007235       21.4135089357
  C        11.0530893811        2.1707073284       21.4915458013
  H         9.4909634495        3.2009105885       17.6766401915
  C         9.8203623519        6.0720079359       17.0237256716
  H         0.2645732145        5.5540328584       27.2582097080
  H         0.5965813196        6.8036238681       28.4990688771
  C         0.7213069601        4.8436024608       29.2971244509
  C         5.2561321362       -0.3424691853       32.7079733666
  H         6.5469347766        3.0987940331       18.9269872614
  H         5.9500297220        2.9805070516       20.6123045416
  C         5.0800821377        1.7333363321       19.1390848278
  H        10.6833143918        2.5096597418       22.4747199354
  H        11.2766162675        3.1468384038       21.0430332187
  C        12.2804338818        1.3951714133       21.6438927820
  C         9.9890244443        7.4516721409       16.8109245345
  C        10.0786040123        5.3210212799       15.7982632222
  H        -0.4054683383        4.7998886835       29.4051855068
  H         1.1984903009        3.9006047448       29.0855612057
  C         1.2923114979        5.2721776833       30.6289033664
  H         5.2296087443       -1.3794979314       32.7044929447
  C         5.0871802080        0.1340914374       33.9836416871
  H         4.2523172361        2.3429016429       19.5016078264
  H         4.9391593710        0.8157262621       19.8094332992
  C         4.9290220702        1.6403136998       17.6517695623
  H        12.2539167223        0.7206838496       22.4662893734
  H        12.4124073942        0.7545719374       20.7313442056
  C        13.5677180222        2.2741077820       21.8085732353
  N         9.8686637803        8.2387401181       17.9341666723
  C        10.4916034034        8.0749993631       15.7389514158
  C        10.5269594560        5.9219281992       14.6217056341
  H         9.9493760669        4.2539972186       15.8275336089
  H         1.0804276645        6.2737013731       30.9627952863
  H         0.9244203694        4.5626955521       31.3405115686
  H         2.3891586496        5.2843332551       30.5603802630
  S         4.7799316957        1.7720751398       34.5254344965
  C         5.0090629995       -0.9103348770       35.0242114448
  H         5.0996089988        2.5564887479       17.0997753748
  H         5.7154330604        1.0031750793       17.2981436083
  C         3.4415434074        1.2491004100       17.4602924196
  H        13.3505739144        3.1871930291       22.4123204540
  H        14.0199794940        2.5663909640       20.8233514273
  C        14.5762684076        1.4433019343       22.5920906044
  S        10.1584943112        9.7946908670       17.4379347716
  N        10.5548327041        9.4556930051       15.9322477910
  C        10.7326444454        7.4185414105       14.5447041025
  H        10.6735617172        5.3546418986       13.7270516162
  C         4.4559193047        1.0478921390       36.1412693475
  N         4.6447493680       -0.2641248411       36.1831796047
  O         4.9585484807       -2.1293662483       34.8486774654
  H         3.2924877549        1.2256299752       16.4288518806
  H         2.8442840843        2.0548433527       17.8593438678
  C         3.1197385238       -0.1233309742       18.2099787544
  H        14.1715226655        0.7020210687       23.3298451707
  H        15.0435984036        0.8021211166       21.8874062841
  C        15.4508702457        2.4089715427       23.3268953730
  C        10.9872090459        8.1684134709       13.3334217649
  S         4.0681445006        1.8196133008       37.6701823802
  C         4.4872734717       -1.0443964374       37.3849748566
  H         3.9872376028       -0.7979928535       18.3132859511
  H         2.8886135690        0.2620013329       19.2423604934
  C         1.8913354022       -0.8073389177       17.6229383322
  H        14.7984632342        2.9175371087       24.0367790769
  H        15.8188726851        3.2704460920       22.6996181908
  C        16.5717138838        1.7224041959       24.0306609287
  H        10.7371842187        9.1983565316       13.3909878146
  C        11.4248502501        7.8311695178       12.1008751852
  H         3.7368673494       -0.6274194191       38.1024756090
  H         4.1371295821       -2.0227836520       37.1466445069
  C         5.7903435353       -1.1215374629       38.1277384019
  H         1.1448279510        0.0043149547       17.4538475546
  H         1.5573457571       -1.5688730232       18.2989104314
  C         2.3412896912       -1.6153710334       16.3448046451
  H        16.9890527621        2.2897196785       24.8409998413
  H        16.3165938808        0.6973617896       24.3450194058
  C        17.7100873778        1.5009138139       23.1552929384
  S        11.9326313311        6.3032298535       11.6384964809
  C        11.5700435520        8.8864366411       11.0660014958
  H         6.4410842409       -1.9843495258       37.8828916344
  H         6.4590020108       -0.3065513178       37.9392111952
  H         5.4470397857       -1.2869011023       39.1537801772
  H         2.6750477391       -0.9068372426       15.6170047312
  H         1.4854842730       -2.1027534462       15.8568335978
  H         3.0766765782       -2.3163982207       16.5648159627
  H        18.0112133749        2.2945607742       22.5561055097
  H        17.5349322052        0.6863423650       22.4826330181
  H        18.4771933742        1.2569545598       23.7465359008
  C        12.2185500356        7.0086738385       10.0284703561
  N        12.0504163068        8.3259085975        9.9574712829
  O        11.4673522032       10.0990391424       11.2521721654
  S        12.8209592789        6.0724999583        8.6986699468
  C        12.2003617502        9.1410635673        8.7623133653
  H        12.5967720771       10.0989566128        8.9790013484
  H        12.8325824382        8.5417169181        8.0621923313
  C        10.7857981792        9.3465565687        8.0845337369
  H        10.4247480772       10.3432412485        8.3006454577
  H        10.9443570348        9.2613760895        7.0115670276
  H        10.0767132691        8.6186764328        8.5270726749
  H        -3.3278751732       14.8639975967       16.7281000408
  C        -3.0087206302       13.7703672259       16.6233556304
  H        -3.8995591582       13.1566812629       16.7669703111
  C        -1.9881375598       13.4672646680       17.6935766910
  C        -2.5388565005       13.6202214737       15.2518886209
  C        -2.5526281408       13.4809735189       19.1119674304
  H        -1.7086779043       12.4240566962       17.6630897488
  H        -1.1111384643       14.1695652466       17.6265780982
  H        -2.5015175038       12.5862730800       14.9095141949
  H        -3.3068780744       14.0924607682       14.6087575744
  H        -1.5191182806       14.0903504947       15.1819644761
  C        -1.3469100415       13.3874543329       20.0310337778
  H        -3.1688919389       12.5903757677       19.3147863097
  H        -3.1630269277       14.3285577909       19.2911511990
  C        -1.8073741533       13.5607163184       21.4667527925
  H        -0.7981537495       12.4720855555       19.8293128539
  H        -0.6512697332       14.2099664617       19.7907597375
  C        -0.8971190644       12.8853789565       22.4625862174
  H        -2.7743603468       13.2190588950       21.6546197349
  H        -1.8208220906       14.6038106111       21.6707073308
  C         0.2539272444       13.8778378490       22.6453439749
  H        -1.4600331746       12.7219088064       23.4332030558
  H        -0.5926633246       11.8996419473       22.1513799400
  C         1.4605971878       13.3854450206       23.4175786379
  H         0.5297106258       14.4381951764       21.7566565407
  H        -0.1341848945       14.5665874500       23.3442870911
  C         1.9181712372       12.0618277202       22.7429458178
  C         1.0165797022       12.6343753366       24.5985453158
  C         2.5808469046       14.3636313961       23.6739841597
  C         1.6055403349       10.9710461133       23.5230457488
  C         2.3941036121       11.7384579321       21.4938745803
  C         1.0569920530       11.2931535574       24.7072191836
  C         0.4455208220       13.2592733506       25.7288417050
  H         2.7549346064       14.8853464165       22.6625477964
  H         2.2651338528       15.1015943657       24.4153176693
  C         3.8055299213       13.7815612762       24.2822922341
  S         1.9161358166        9.5048947354       22.6711341757
  C         2.4848860981       10.4139308068       21.2449850857
  H         2.5099029447       12.5683782678       20.7504085155
  C         0.6018249774       10.5696885755       25.7808831332
  H         0.4635815051       14.3099108842       25.7937979133
  C         0.0474775483       12.5167147069       26.8534076126
  H         3.9330290980       12.7769771296       23.8420559896
  H         3.7809236012       13.6602678092       25.3908720982
  C         4.9939538319       14.7041720037       23.9412954216
  C         2.8995780819        9.6733997513       20.0057892068
  C         0.1092711784       11.1723140459       26.9073464759
  H         0.6881001689        9.4947930780       25.8288826657
  C        -0.3503630576       12.8625933512       28.1562546995
  H         5.7855835793       14.5155887910       24.6121570925
  H         4.7419252605       15.7504776893       24.1168405734
  C         5.5149859866       14.6185658611       22.5678412934
  C         2.7176949948        8.2983409458       19.7394760268
  C         3.4504166971       10.4982356652       18.9775091746
  C        -0.1929177161       10.4529673781       28.1894113376
  C        -0.4670304038       11.7704739373       28.9233007559
  S        -0.6886939831       14.3528451665       28.8324453281
  H         6.2390144869       15.4334614178       22.3301258308
  H         4.6676251471       14.7297412931       21.8588375421
  C         6.2550541908       13.2877714444       22.3466996552
  N         2.2313504595        7.3422595516       20.6648133409
  C         2.9040613670        7.7492656638       18.5177145375
  C         3.6846670138        9.8988679628       17.7057655808
  H         3.7035329889       11.5709635698       19.0948321657
  C         1.0169400075        9.6742423892       28.7491076856
  C        -1.5156376316        9.6780188545       27.9766865116
  C        -0.8272646270       12.1288694390       30.2519801331
  C        -0.9582946920       13.5141887852       30.3655211708
  H         7.0270213746       13.2461800149       23.1149996196
  H         5.5946978552       12.4373849426       22.4058366551
  C         6.9503645187       13.4335167927       20.9351125086
  S         2.1047300019        5.8860240198       19.9220321191
  N         2.4649537857        6.3902992288       18.4721077934
  C         3.3628210094        8.4825265987       17.4298392106
  H         3.9538669060       10.5255579811       16.8875926787
  H         1.3729414456        9.0177443964       27.9529424177
  H         0.6214942754        8.9832002311       29.4894371373
  C         2.1320376005       10.5361524874       29.3406601958
  H        -1.2369846154        8.6790888186       27.5170986198
  H        -1.9623641488        9.4146523221       28.9322045510
  C        -2.6306647749       10.3677891092       27.2510861854
  H        -1.0675350785       11.3292913871       30.9141587268
  C        -1.3415793054       14.2226739030       31.6416730184
  H         7.3817877235       12.4712073192       20.8583029420
  H         7.8229693059       14.0809512040       20.9431015364
  C         5.9769425467       13.6393197621       19.7937345262
  C         3.4059540690        7.7853028950       16.2096965193
  H         2.5884930388       10.9464082883       28.4369100367
  H         1.7325441755       11.3131676494       29.9186188397
  C         3.1594053753        9.6404844330       30.1208388974
  H        -2.3024290153       10.7268740482       26.3137166484
  H        -2.8274301143       11.3094709571       27.8586147071
  C        -3.8605106386        9.4094749222       27.1623502627
  C        -1.3281414749       15.6192624479       31.8512254128
  C        -1.6344749743       13.4250518608       32.8547496700
  H         5.1612484508       13.0210809672       19.8631358503
  H         5.5985566099       14.6167226368       19.7876458690
  C         6.5655121471       13.3104964123       18.3987323518
  H         3.4277925056        6.6908177225       16.2827884731
  C         3.6449514023        8.1813439586       14.9415206899
  H         3.5429812215        8.9985508950       29.3878804124
  H         2.6376774532        8.9922615321       30.8655682868
  C         4.2355912051       10.3753489133       30.8783941873
  H        -3.8039994312        8.7885747487       26.3177028225
  H        -3.8468550933        8.7309231561       27.9982720638
  C        -5.1598310885       10.2968925289       27.2110384060
  N        -0.9404676356       16.5278136347       30.8550819671
  C        -1.6910899759       16.2193878862       33.0204865878
  C        -2.0496232600       13.9907384200       34.0432901934
  H        -1.5327887500       12.3581174185       32.7207008765
  H         7.5417430126       12.9157319380       18.4751328147
  H         5.9576533837       12.4796921129       17.9124409290
  H         6.5114300808       14.2259093640       17.8500676513
  S         3.9489477648        9.7892361781       14.4073528402
  C         3.7634580491        7.1268308331       13.8460815236
  H         4.7453059308       11.2240239752       30.3671808706
  H         3.6478697096       10.9262384749       31.6528518790
  C         5.1897416558        9.3602318163       31.5263945735
  H        -4.9559547962       11.2743341951       26.8064779826
  H        -5.4829475989       10.4283929550       28.2583650269
  C        -6.2982350089        9.6769728736       26.4352591617
  S        -1.1295161143       18.0181125495       31.4915102751
  N        -1.7889964510       17.6086670580       32.9088742775
  C        -2.0721019728       15.4462775613       34.1217512542
  H        -2.4484823463       13.3516821108       34.8611437220
  C         4.0671701073        9.0836530465       12.8116598392
  N         4.1259699490        7.7671694691       12.6990777085
  O         3.5820597761        5.9263932158       14.0603963569
  H         4.6119289490        8.7193153866       32.1935847061
  H         5.9227009565        9.8570464740       32.1346935559
  C         5.9726267187        8.6461932065       30.4289325003
  H        -5.8237602182        8.9905576116       25.6887942444
  H        -6.8959406957        8.9511498390       26.9359345474
  C        -7.1327238124       10.6255843341       25.7029606347
  C        -2.4005442774       16.1475889426       35.2871186557
  S         4.6657120178        9.9813915095       11.3787655944
  C         4.1612076801        7.0526167156       11.3807330326
  H         5.5188853987        8.7622931565       29.4327248869
  H         6.9682797214        9.1382006454       30.3396519246
  C         6.1477408635        7.1614014838       30.8733687118
  H        -6.5278672438       11.1158950819       24.8986632965
  H        -7.4164366862       11.4518506991       26.3270166163
  C        -8.3617415611       10.0081989689       25.0919124516
  H        -1.9926033163       17.1327541322       35.3371130967
  C        -3.0277716739       15.7850964291       36.4656574095
  H         4.7674155249        7.4917112804       10.6236187353
  H         4.7116157995        6.0904483962       11.4688047733
  C         2.7820108075        6.8661105298       10.8300292307
  H         6.3097298780        6.7326472011       29.8809750936
  H         5.1228095954        6.7397378994       31.1258685083
  C         7.2512076844        6.7967907372       31.8017423889
  H        -8.7100612667       10.6823097655       24.3025685759
  H        -8.0669253549        9.0292894440       24.6151992545
  C        -9.4005688935        9.7359594489       26.0369520478
  S        -3.7975473293       14.2751039896       36.8911222521
  C        -3.1637668018       16.9159116192       37.5170393358
  H         2.5046527038        7.6126983282       10.0757163803
  H         2.6618133769        5.8684586400       10.3885785104
  H         2.0471298198        6.9414338057       11.6541940878
  H         7.1031474550        7.4976871935       32.6822335886
  H         8.2437787743        6.9619223462       31.3201046429
  H         7.2367379733        5.7391360091       32.1930524154
  H        -9.6914071899       10.6610430707       26.4067628481
  H        -9.1098958189        8.9654445623       26.7539147507
  H       -10.2752376482        9.4118860537       25.4078761632
  C        -4.1140340665       15.0455043546       38.3809872466
  N        -3.8094303078       16.3880608503       38.5463677381
  O        -2.8447170613       18.0729756592       37.4699269097
  S        -4.9360687505       14.3378424369       39.7247863641
  C        -4.0445591879       17.0504525681       39.7971654548
  H        -4.0172939756       18.0936664439       39.5815277196
  H        -5.0809978314       16.9148549026       40.1792279033
  C        -2.9661761220       16.8068524184       40.7499705766
  H        -3.3139573652       16.0775911580       41.4825212628
  H        -2.0524398485       16.4876254260       40.2989642563
  H        -2.7668962310       17.8719618880       41.1198473698
