352
 i =    92500, time =    92500.000, E =        25.2279544919
  H        10.1423923114        6.7120606741       31.2065649155
  C        11.1032249319        6.6448906630       31.6463004649
  H        11.5240675687        7.6252720780       31.8512537250
  C        12.2832189623        6.0963165584       30.7561286125
  C        10.8015543394        5.9053001629       32.9644227694
  C        11.7359232939        5.2617103750       29.5373622327
  H        12.8043563791        6.9618352505       30.3817312445
  H        12.9907681446        5.6066671934       31.3804526057
  H        11.5164691560        6.0300137380       33.7372543649
  H         9.8643315060        6.0740992514       33.4547089627
  H        10.7603828456        4.7994434068       32.7563407632
  C        10.7574074531        5.9922817351       28.5562829158
  H        11.2058283545        4.4015206384       29.9511061195
  H        12.6414401775        4.9967349356       28.9896317646
  C        10.8077454563        5.7076266710       27.0327521384
  H         9.7521244692        5.8333047781       28.9166303542
  H        10.9670373254        7.0787290814       28.6871013614
  C         9.6735304286        4.8229819970       26.4631064338
  H        11.7271947950        5.0716191274       27.0272234127
  H        10.9488842150        6.6427239532       26.4282042689
  C         8.3526437341        5.6322558742       26.2454070434
  H        10.0305466015        4.4523791242       25.4218134688
  H         9.4844898639        3.9880393720       27.1525518862
  C         7.2549852972        4.9265426291       25.4887215144
  H         7.9553199216        6.0659751650       27.1773159394
  H         8.5637388083        6.4411559257       25.5339194287
  C         6.9320402862        3.6078086671       26.2316732030
  C         7.8051613008        4.1782388184       24.3501081951
  C         6.0054679320        5.7547369394       25.1487764603
  C         7.2221635034        2.5075738291       25.4491418498
  C         6.3995886725        3.2418727640       27.5037318628
  C         7.7412587048        2.8570048660       24.2342810586
  C         8.3103402753        4.8384637345       23.2453158729
  H         5.4110597960        5.1248674111       24.4675499074
  H         6.2766972551        6.5992106138       24.5256274572
  C         5.1235545796        6.2590103990       26.2625472460
  S         6.8995777656        0.9928272781       26.2582083885
  C         6.2848652381        1.8897240621       27.6668769225
  H         6.1220854481        4.0581855689       28.1179259401
  C         8.1739101145        2.1880057057       23.1293189138
  H         8.3334962608        5.9371340615       23.4170618315
  C         8.6750671959        4.1746677054       22.0961672506
  H         5.4225815935        5.8042081572       27.2142311272
  H         5.2877627079        7.3166808323       26.4221610137
  C         3.5639828756        5.9845656511       26.0038054668
  C         5.9533667016        1.1999882174       29.0017338890
  C         8.6372612555        2.8529148349       21.9915216778
  H         8.0304848353        1.1656553254       23.0996712654
  C         9.1185588083        4.5746615888       20.8605421401
  H         3.3910857133        5.0078227184       25.5019897651
  H         3.3033875120        6.6409452177       25.1725273991
  C         2.7437048315        6.1987957060       27.2698792561
  C         6.1872160261       -0.1345130218       29.3302659138
  C         5.7841821826        2.0053019113       30.2420297638
  C         9.0249073421        2.1377023068       20.7137024521
  C         9.3585888776        3.4697950789       20.1006403236
  S         9.4027749934        6.0686520266       20.0858299171
  H         1.8920624688        6.9149500879       27.1817780951
  H         3.3200917793        6.5492883761       28.1232792047
  C         2.1766070369        4.8844074168       27.6155883045
  N         6.5148983533       -1.0548834796       28.3991786315
  C         5.9213469016       -0.6998155746       30.5392701695
  C         5.4891896418        1.5008880914       31.4575835642
  H         5.8074455759        3.0596168211       30.1912286268
  C         7.8711927953        1.3801975214       20.0316620261
  C        10.3434813654        1.3159000038       20.8677183380
  C         9.8164951152        3.8758353195       18.8045555690
  C         9.9198166184        5.2377531324       18.6801125628
  H         1.4680670619        4.7814448235       26.7897291146
  H         3.0053956526        4.1517551085       27.5332002726
  C         1.3862400933        4.8398514467       28.9379756273
  S         6.5536728632       -2.5493360287       29.0360837582
  N         6.3193027889       -2.0157113721       30.5619329415
  C         5.5229458194        0.0020519740       31.7234652478
  H         5.1351308149        2.1705852589       32.2250101972
  H         7.5922547896        0.4098338032       20.6231433877
  H         8.1075061400        0.9525042558       19.0358703428
  C         6.6422050210        2.2197198917       19.7157987624
  H        10.6634013820        0.8404053170       19.9065834005
  H        10.1954390011        0.4968588225       21.5917323991
  C        11.5608038374        2.1801974867       21.3406681621
  H        10.0533740979        3.1483670337       18.1360602575
  C        10.3674900860        6.0241080566       17.4925861322
  H         1.1181237832        3.8553974034       29.2503804503
  H         0.4815470358        5.3810816433       28.7026133937
  C         1.9425198726        5.4099568590       30.2251307432
  C         5.2660564056       -0.6922818351       32.9142848523
  H         6.8009455421        2.9565084518       19.0260350232
  H         6.3309286395        2.8252753310       20.6338019730
  C         5.4195817659        1.4881517695       19.0936182984
  H        11.2834306321        2.6193337798       22.3081704278
  H        11.9190924111        2.8450923179       20.5889159353
  C        12.8352777538        1.3680626125       21.5042489535
  C        10.3304562252        7.4474966454       17.3997648169
  C        10.5624543658        5.3502452007       16.1914039649
  H         2.0506522735        6.5312904358       30.0422132954
  H         1.2202703345        5.1888829937       30.9664158193
  C         3.2745290736        4.8146551002       30.5220815509
  H         5.3871886710       -1.6978345487       32.9111896788
  C         4.9482950119       -0.2432727699       34.1790782526
  H         5.1690772768        0.6063849983       19.7326810868
  H         5.7310320207        0.9836380916       18.1675467910
  C         4.1096222803        2.2560703884       18.9859586493
  H        12.6504807252        0.5099671356       22.1198963974
  H        13.0366130909        0.9689591786       20.5659503496
  C        14.1476525412        2.1127799652       21.8499410224
  N        10.0700205432        8.3277952669       18.4961455776
  C        10.5240200704        8.1559891154       16.1996204046
  C        10.6288132006        6.0840251741       15.0352271851
  H        10.7087200441        4.2945981032       16.2171531703
  H         3.9226527973        5.5287148025       31.0012326092
  H         3.1458569941        3.9415971594       31.1790600595
  H         3.7529709294        4.5053795095       29.5928434296
  S         4.4992998746        1.3259504531       34.5934774757
  C         4.8417959135       -1.2273404412       35.2924393684
  H         4.1508223384        3.0791240887       19.7367548464
  H         3.8918256119        2.6383553868       18.0299852053
  C         2.8115184460        1.4551056912       19.2156266974
  H        13.7331629218        3.0825311491       22.2850931653
  H        14.6646344159        2.3427306025       20.9037197214
  C        15.0964975654        1.4401767131       22.8469894993
  S        10.2556394640        9.8979064346       17.9201685266
  N        10.5272553215        9.5454728944       16.3935479378
  C        10.7307229304        7.5661752931       14.9596776751
  H        10.7673609496        5.5637349296       14.1339697299
  C         4.2574545670        0.6575269910       36.2257426659
  N         4.4161067181       -0.6626761967       36.4676079473
  O         5.1646039943       -2.4174420055       35.1530887291
  H         1.9938472980        2.1503642448       19.3081163248
  H         2.8576416963        0.9846163464       20.1691081782
  C         2.6660841937        0.4094446523       18.1520208689
  H        14.5437145935        1.0633703195       23.6747174575
  H        15.4071580181        0.6076576155       22.3132552135
  C        16.1806406360        2.3725552752       23.3809747327
  C        11.1225756592        8.3277847728       13.8321858507
  S         3.7108592007        1.5941325139       37.6233131574
  C         4.6131824686       -1.3733932787       37.7347768005
  H         2.3745835190        0.8483861017       17.1468134705
  H         3.6691264043        0.0282950472       17.8837373462
  C         1.7340447054       -0.7259732202       18.4401402332
  H        15.7992147822        3.1115573232       24.0828635415
  H        16.7104999283        3.0610842681       22.7071348382
  C        17.3048502354        1.7403247384       24.1543730694
  H        10.9266524318        9.3366797796       13.9942279652
  C        11.5572543414        8.0374306421       12.5523889853
  H         4.1183685261       -0.9126921094       38.6011623396
  H         4.1939236926       -2.3626291064       37.5208341691
  C         6.0865656989       -1.6493075981       38.0651984801
  H         0.6879035497       -0.4468202312       18.4966097500
  H         2.0047229763       -1.2790058355       19.2630863250
  C         1.7990304143       -1.5987438565       17.1380245874
  H        17.5862795985        2.4506357470       24.9657425446
  H        17.0011018767        0.7814024739       24.5487193462
  C        18.4855475563        1.4427421592       23.1360614662
  S        11.9910924004        6.5799573059       11.8521902561
  C        11.5678695938        9.2580953289       11.6280445663
  H         6.8512189191       -1.3602336675       37.3444093912
  H         6.5191616535       -1.1850527900       38.9588887478
  H         6.1471033274       -2.7551887981       38.0374531232
  H         2.8508944156       -1.7748345584       16.8618299848
  H         1.3186461828       -1.1862208589       16.1943788535
  H         1.4260547568       -2.6128437980       17.2880571863
  H        19.3476986592        0.9183247140       23.5004366646
  H        18.8666535937        2.4016962965       22.7100089825
  H        18.1160448705        0.8872023473       22.2807414179
  C        12.3518112466        7.4956273604       10.3582406831
  N        12.0384492536        8.8249949402       10.4202507488
  O        11.3985042977       10.4044140663       11.9763677859
  S        12.9998207633        6.6549446691        8.8763867179
  C        12.0969569434        9.6131485084        9.1884203829
  H        12.2628133341       10.7078321858        9.4123473321
  H        12.8486684741        9.3263117507        8.4465983715
  C        10.8031239670        9.4451233282        8.4042616699
  H        10.3606559609       10.3773846267        8.0989549027
  H        10.9169686405        8.9405440145        7.4348746295
  H        10.1045729042        8.9885879141        9.0712601682
  H        -3.6770502341       14.8653489966       16.6701351974
  C        -3.3694734173       13.8364537833       16.4373644602
  H        -4.1958560674       13.1799498813       16.8372449397
  C        -2.2323118977       13.7363001680       17.4635786550
  C        -2.9564433764       13.5134676591       14.9668030233
  C        -2.7205917494       13.7398438429       18.8813182634
  H        -1.6440531214       12.8637901399       17.3282350905
  H        -1.5679543533       14.5869428047       17.1998103235
  H        -3.7421354989       13.7521808649       14.3283621983
  H        -2.1773521328       14.1645986963       14.7134295059
  H        -2.6753662831       12.5305776736       14.7266991657
  C        -1.6646980531       13.7121725227       19.9919561051
  H        -3.4196003319       12.9811229809       19.0179015561
  H        -3.4323089618       14.5963468318       18.9605453368
  C        -2.1640703672       13.7299843508       21.4715853641
  H        -0.9838767300       12.9307801857       19.9311555471
  H        -0.9447365956       14.6093887155       19.9132068953
  C        -1.1925429858       13.0352082909       22.4278224421
  H        -3.1806443578       13.2267811029       21.4925406727
  H        -2.2622937706       14.7905053149       21.8378692806
  C         0.0849402439       13.8148244935       22.8178183492
  H        -1.7446944025       12.6887333999       23.2839283865
  H        -0.8754501548       12.0884751584       21.9165784384
  C         1.2187979240       13.0637868049       23.6239754980
  H         0.6407580491       14.2962030768       21.9336872232
  H        -0.2692893773       14.5739223576       23.5141489572
  C         1.6503794660       11.7337458072       22.9412173776
  C         0.6776650386       12.3562401319       24.8390884275
  C         2.4090825415       14.0559779619       23.9660425153
  C         1.2174861927       10.5897971293       23.6003510476
  C         2.1412221590       11.3594321286       21.6939100716
  C         0.7381499329       11.0200255252       24.8502045846
  C         0.2524526276       13.0272510195       26.0184484641
  H         2.6175341216       14.5585111493       22.9683651521
  H         2.0576194391       14.8256742807       24.6844057279
  C         3.7383022159       13.3620029215       24.4339687857
  S         1.5143991944        9.1112539705       22.8320911082
  C         2.1735063369        9.9963298712       21.4608359366
  H         2.4498993349       12.1666681459       21.0328285379
  C         0.3887506449       10.3502601340       25.9885971625
  H         0.2550138230       14.1196426236       25.9963307155
  C        -0.0152600644       12.3311526035       27.1352780628
  H         4.0095051037       12.4518694039       23.9558522718
  H         3.7123601748       13.0598863004       25.4398867499
  C         4.9455618115       14.3181315038       24.2184498364
  C         2.6292373152        9.3460709337       20.1591168062
  C         0.0285779051       10.9893788036       27.1742902870
  H         0.5135571577        9.3272361672       26.0884593604
  C        -0.3067986163       12.6451080525       28.3706557449
  H         5.8553542713       14.0190212389       24.8131881727
  H         4.7374287694       15.4162672885       24.4927746635
  C         5.3723431801       14.2572197664       22.6783847376
  C         2.6151786317        7.9337605356       19.9743957842
  C         3.0786235920       10.1763031236       18.9787924195
  C        -0.2751722593       10.2367067666       28.4712457374
  C        -0.4954857758       11.5491647927       29.1799867437
  S        -0.5531871411       14.1193920280       29.1915512575
  H         5.9118863402       15.1557207612       22.3056345250
  H         4.4872741031       14.1645853701       22.0489135868
  C         6.2987929094       13.1150517952       22.5454142393
  N         2.1887190600        6.9847309583       20.8976725120
  C         2.8332817586        7.3429778310       18.7535333131
  C         3.2660008868        9.5524538316       17.7400909211
  H         3.1813900711       11.2297411252       19.0487496569
  C         0.8661384362        9.4150211328       29.1042498718
  C        -1.5878069882        9.4019757157       28.4001465151
  C        -0.9617984200       11.9096643491       30.4827844415
  C        -1.0595123964       13.2576545965       30.6479247160
  H         6.9889223165       13.1078432145       23.3745133749
  H         5.7214276851       12.1698407216       22.3835300034
  C         7.3816669006       13.2247279667       21.4971877512
  S         2.2429505770        5.5476441851       20.2516737283
  N         2.8168536868        5.9514182965       18.8487203465
  C         3.1814668863        8.0720936914       17.5905590314
  H         3.5388114326       10.1617563677       16.9008831384
  H         0.9916447186        8.4453352096       28.5962245783
  H         0.4509193348        9.1870813236       30.0964107324
  C         2.2032941271       10.2592563332       29.1620688641
  H        -1.4506848881        8.6138184346       27.6783209046
  H        -1.6634698886        8.8439446950       29.3634849935
  C        -2.8537793108       10.3067120047       28.1106134549
  H        -1.1880078368       11.1409111427       31.2064694266
  C        -1.4662991505       13.9354776149       31.8881162385
  H         7.9533054097       12.3064438400       21.5706933827
  H         8.1524762260       13.9261472450       21.6340306619
  C         6.7963739713       13.4554572755       20.1290645517
  C         3.4644753996        7.3543072296       16.3961511262
  H         2.6671868607       10.6825589905       28.2015276604
  H         2.0358099039       11.1946116670       29.6768902167
  C         3.3405576927        9.5441831694       29.8927567313
  H        -2.8168095821       10.7744592694       27.0901374723
  H        -2.8728872783       11.1325356750       28.8519212924
  C        -4.1018978271        9.4225673743       27.9366371171
  C        -1.4888018435       15.3851696064       32.0404647588
  C        -1.7295952927       13.1249674584       33.0866837693
  H         6.1484257679       12.6425310384       19.9228628936
  H         6.1833774252       14.3393694460       20.1417958175
  C         7.9034374660       13.5448063374       19.1009000886
  H         3.2418438385        6.3169730202       16.3586351840
  C         3.9511169701        7.7352817128       15.1844243149
  H         3.3562719696        8.5197486867       29.5383878891
  H         2.9602700284        9.5269508162       30.9408381424
  C         4.7535157726       10.2396551389       29.8973666387
  H        -3.8518795497        8.6055137819       27.3128665891
  H        -4.2002131924        8.8281325642       28.8680482808
  C        -5.3901034791       10.2241624679       27.7646947695
  N        -1.3972964261       16.3737435420       31.0292857753
  C        -1.8700261491       15.9815942839       33.1938731461
  C        -2.0819405470       13.7447785600       34.2682715593
  H        -1.7118593961       12.0538455688       33.0346613553
  H         8.7280909519       12.9173481234       19.3352756463
  H         7.6613115239       13.2544043010       18.0991136732
  H         8.3064458802       14.5189685355       19.2532123649
  S         4.4674010893        9.3209685447       14.7105356634
  C         3.9588358504        6.6897883349       14.0765411876
  H         5.0719827190       10.1207303959       28.8493002245
  H         4.7261621400       11.3111667759       30.1518494858
  C         5.7228745440        9.4769511799       30.8834888775
  H        -5.1967126737       11.1267566702       28.3591567824
  H        -6.2981629099        9.7259756138       28.1121669548
  C        -5.5139252148       10.5475034661       26.2553518994
  S        -1.3001596281       17.8674814770       31.6361667883
  N        -1.8318053975       17.4059402372       33.1385172372
  C        -2.1285656459       15.2163139970       34.3911959840
  H        -2.2441967130       13.1333054011       35.1736421022
  C         4.3879300790        8.7048736664       13.0419960481
  N         4.2895697565        7.3306192942       12.9292117026
  O         3.5900029383        5.5009572675       14.2063000922
  H         5.1816091321        8.8787498867       31.6150074725
  H         6.2272662345       10.1731998446       31.5664428606
  C         6.8019100694        8.6267982053       30.1961815382
  H        -4.6735923356       11.2298222413       25.9177518257
  H        -5.4792378216        9.6741531019       25.5424748579
  C        -6.6721821685       11.3939702156       25.7917963017
  C        -2.4949001700       15.9164979525       35.5900738571
  S         4.9820168686        9.4587532574       11.5425641761
  C         4.4407653468        6.5236147136       11.6389290370
  H         7.1884963360        8.9307326947       29.2260952254
  H         7.5548156037        8.5893697333       30.9194839105
  C         6.3540944590        7.1918813851       29.9988181500
  H        -6.6568343944       11.3176859214       24.6880462617
  H        -6.5217862769       12.4824406261       26.0170952007
  C        -8.1098766612       10.9826662553       26.1216212912
  H        -2.1956254596       16.9687682714       35.4896138932
  C        -2.8715231833       15.6031963848       36.8249745373
  H         5.0684503600        6.9548228723       10.8390999479
  H         4.9796042482        5.5485130006       11.7844563383
  C         3.1194548445        6.3571284788       10.9805720743
  H         6.7964803541        6.7815385892       29.0463483361
  H         5.3038220952        7.2534842842       29.7800413908
  C         6.7555737246        6.3786167144       31.2147251651
  H        -8.2204635180       10.8797552904       27.2436191066
  H        -8.7898843886       11.6469670231       25.6418983454
  C        -8.4365947958        9.5341408710       25.6473272204
  S        -3.2762196006       14.0612451543       37.3785005410
  C        -3.0215038831       16.7229096080       37.7753972612
  H         2.2139657295        6.3835966171       11.5622115929
  H         3.0020392282        7.1048876307       10.1258719291
  H         3.0579354204        5.3761467633       10.5158046103
  H         6.6244657516        6.9359550748       32.1468162831
  H         7.8518682466        6.1940876121       30.9872210815
  H         6.1294941470        5.5384995990       31.2547396865
  H        -7.9110624240        8.7372639054       26.2054563598
  H        -8.2193247981        9.5138082730       24.5553113870
  H        -9.4628344257        9.3532540381       25.7434469339
  C        -3.8416386127       14.8564147755       38.8315430059
  N        -3.6354484990       16.1913818417       38.8732863225
  O        -2.6525271835       17.8805260402       37.5893185505
  S        -4.6162878983       14.0211968335       40.2613288941
  C        -3.9977169525       17.0251357610       39.9968644256
  H        -4.0169785798       18.0434700132       39.6368791474
  H        -5.0840152663       16.7797369568       40.2497738911
  C        -3.1162287451       16.9813825836       41.2091071172
  H        -2.2156034567       16.3550829339       40.9870866335
  H        -2.7507245887       17.9053089938       41.5381429204
  H        -3.7254793966       16.3978183210       41.8968737762
