352
 i =    70800, time =    70800.000, E =        24.9582959527
  H        12.7726210880        5.4552928708       32.1597698642
  C        11.6211363531        5.6103336749       32.0738021528
  H        11.1183012984        4.6656238216       31.9643775344
  C        11.3686973556        6.5022683027       30.8889156310
  C        11.2735211095        6.2971491297       33.4221273584
  C        12.0625415712        6.0016577728       29.5725482746
  H        10.3079311310        6.5851601365       30.9035272483
  H        11.7898120412        7.3941134358       31.2419862334
  H        11.8638699079        7.1810293110       33.6798081444
  H        10.2330584997        6.3393241961       33.4916982187
  H        11.5179379722        5.5806641218       34.1757631518
  C        10.9936396129        5.3338242995       28.7008549352
  H        12.8057611263        5.2906131861       29.9201379689
  H        12.5906628413        6.7910169467       29.0198374652
  C        10.8646056252        5.8863428633       27.3050668703
  H        11.2994065008        4.3018122265       28.4947396314
  H        10.0138607687        5.2729935840       29.0992267655
  C         9.8561875646        5.0802559454       26.5009093734
  H        11.8944285470        6.1004310240       26.8612965149
  H        10.3779832896        6.8995073888       27.2568748352
  C         8.5989986137        5.8765037479       26.0671669585
  H        10.4536995803        4.8680893602       25.6143843431
  H         9.4924801613        4.1686132807       26.9890880571
  C         7.5510454549        5.0640808079       25.3351904947
  H         7.9902407818        6.2077284801       26.9016016850
  H         8.8325502245        6.8095113473       25.5037019566
  C         7.2817046299        3.7085403025       25.9413676601
  C         8.2145253411        4.3139869788       24.1200054183
  C         6.2716347629        5.8395665071       24.9688364257
  C         7.5433187457        2.5961751150       25.1656846542
  C         6.7542023176        3.2805095464       27.1352472208
  C         8.1629366016        2.9850672472       23.9846432885
  C         8.7075075518        5.0181535416       22.9893695953
  H         5.7554487415        5.1977336254       24.2018319089
  H         6.5802775521        6.8166320972       24.4982891845
  C         5.2575106889        6.2026538785       26.0844653587
  S         7.1328057990        1.0768876081       25.8888707606
  C         6.5897859325        1.9127975072       27.2976623206
  H         6.6343325762        4.0083591023       27.8873342030
  C         8.4354759309        2.3911552597       22.7555962176
  H         8.9058127887        6.0909183850       23.0238828204
  C         8.9594991187        4.4511888377       21.7815549952
  H         5.0567029301        5.3381038594       26.7564555035
  H         5.6284855496        7.0598220361       26.6916500621
  C         3.8943560705        6.5720581447       25.5517264700
  C         6.2024920112        1.2265708927       28.6027653310
  C         8.8236735791        3.1284265868       21.6222039366
  H         8.2667735619        1.3416194368       22.7636066147
  C         9.3383607102        4.7587855478       20.5006730287
  H         3.8308741578        6.1551196042       24.5218749644
  H         3.9697747471        7.5961327587       25.3085254830
  C         2.7378232065        6.2746700356       26.5060791380
  C         6.1299912070       -0.1961785813       28.7992285803
  C         5.7748999980        2.1126407366       29.7068164463
  C         9.0862011889        2.4137598482       20.3603554818
  C         9.4026877463        3.6913193763       19.6225594338
  S         9.7685257712        6.1500815563       19.7539026134
  H         1.9337531586        6.5780410674       25.8682721034
  H         2.7174977074        6.9568332314       27.3747076517
  C         2.5510868407        4.8000707308       26.9524623626
  N         6.3712638388       -1.1549038048       27.7801305271
  C         5.9029368282       -0.6847008727       30.0590034494
  C         5.5103317200        1.5966623154       30.9726407924
  H         5.7892143994        3.1579765209       29.5231496453
  C         7.8485146242        1.7161316139       19.8096138947
  C        10.3444814985        1.6000969749       20.4921162828
  C         9.7390213259        4.0270934340       18.2822027674
  C         9.9737183030        5.3654162292       18.2014025553
  H         1.8832907308        4.1464687638       26.2541435587
  H         3.4756602871        4.2415270668       27.0940688963
  C         1.9752718003        4.8804109425       28.3055711273
  S         6.6100349026       -2.5577437819       28.5272061818
  N         6.1433401052       -2.0594634465       30.0671865504
  C         5.6517151355        0.1066591261       31.2069546001
  H         5.1796864738        2.3096378795       31.7678832773
  H         7.6350153798        0.7887174037       20.3914597378
  H         8.0752087813        1.4514526412       18.7871247603
  C         6.5354543962        2.5931149676       19.8429579917
  H        10.4272626396        1.1104664898       19.5096738107
  H        10.1747012943        0.7643407479       21.1832356596
  C        11.5404022365        2.5007635277       20.8966935048
  H         9.8758167750        3.2582182339       17.5684400359
  C        10.3254810468        6.1448399182       16.9473264338
  H         1.1683021382        4.1148304595       28.4207112006
  H         1.5049807455        5.8331728459       28.4076296320
  C         2.9073343939        4.5516091480       29.4290905059
  C         5.3563614115       -0.5954140638       32.4376058285
  H         6.7063031992        3.5757228066       19.2775506722
  H         6.4340335273        2.9601709045       20.8241612966
  C         5.1914005610        1.7880850307       19.5471406911
  H        11.4051514897        3.0756055942       21.8003900456
  H        11.8708719962        3.2358482549       20.1827697696
  C        12.7959004994        1.7443215204       21.3277137173
  C        10.3281212197        7.5652219768       16.8780462126
  C        10.6164206261        5.4673542647       15.6403643357
  H         3.4596989826        3.5581201702       29.3212173014
  H         3.7990567190        5.2054716089       29.3150688734
  C         2.3571437942        4.7945389088       30.8205140926
  H         5.6649357622       -1.6496316162       32.3887312147
  C         5.0250222457       -0.1656250031       33.6833978895
  H         4.3104726881        2.4020242957       19.7674275317
  H         5.0981758965        0.9242885431       20.1590988579
  C         5.0222079847        1.3503274726       18.0181847641
  H        12.5179177241        0.9634186415       21.9755122473
  H        13.2510580371        1.1880404377       20.5267050949
  C        13.8045036005        2.5620552922       22.1152005304
  N        10.0219853381        8.4208425722       17.9547112255
  C        10.5707671505        8.2774147817       15.7060274599
  C        10.9451477246        6.1569134382       14.5029772990
  H        10.6236684790        4.4674597180       15.6212635861
  H         1.2671028978        4.4906033070       31.0817848139
  H         3.0463539838        4.3873089225       31.5471628610
  H         2.3270563809        5.8776512681       30.9575617182
  S         4.5347510650        1.4580711892       34.1578623055
  C         5.0651902089       -1.1198333130       34.8347707498
  H         5.2165019660        2.1558362874       17.3827837853
  H         5.7374717751        0.5381364474       17.5886685154
  C         3.4678245344        1.0652930746       17.7128206250
  H        13.4840430730        2.6808930658       23.1102072039
  H        14.1148607925        3.4888148196       21.6284219969
  C        15.1785061883        1.7716109986       22.2908084810
  S        10.2455278097        9.9496179385       17.4664161901
  N        10.5345924752        9.6626666427       15.8561156248
  C        10.8868060771        7.6410946365       14.5154384896
  H        11.2407628110        5.6246180679       13.6703149157
  C         4.3461564142        0.8444941053       35.7225620607
  N         4.5550775457       -0.4975339102       35.9004067640
  O         5.5572903200       -2.2051090314       34.8074715854
  H         3.1094241630        0.9477339738       16.7410184110
  H         2.8761606684        1.9408885831       18.0373651202
  C         2.8928773145       -0.1912585501       18.3666240898
  H        15.0207629008        0.7665389692       22.7870262775
  H        15.5597064125        1.5972369964       21.2598874575
  C        16.2140928885        2.6472767803       22.9280043891
  C        11.1364478946        8.4303972368       13.3926636010
  S         3.8865868588        1.8403610625       37.1310722470
  C         4.5722765077       -1.1661369426       37.1960634004
  H         3.2629095320       -0.1674949107       19.3939485279
  H         1.7624040033       -0.0253436416       18.3977108508
  C         3.3824586120       -1.4479697685       17.5734210385
  H        15.8057132278        3.2868416179       23.6503441343
  H        16.5078451026        3.3437105261       22.1690971955
  C        17.4948063085        1.9772050367       23.4890881220
  H        10.6427179917        9.3911297856       13.4408470350
  C        11.7994165517        8.2186175227       12.1768125826
  H         3.8836850341       -0.7063843422       37.9753538882
  H         4.3066524170       -2.2714174807       37.0710440127
  C         5.9785983106       -1.0285542048       37.8264693445
  H         3.9924660213       -2.0452152627       18.1674999416
  H         3.9489817828       -1.3057169597       16.6980726588
  C         2.1820828037       -2.2647012465       17.1045403885
  H        17.8104647291        2.2434367819       24.5692831982
  H        17.3162422964        0.8945641662       23.4885105968
  C        18.5787660152        2.1445632989       22.4966926243
  S        12.4814917553        6.7358218445       11.6012544178
  C        11.6848206644        9.2652871839       11.0803762620
  H         6.7047510736       -1.2891460017       37.0288038461
  H         6.1776194495       -0.0581713854       38.3563226381
  H         6.0995809756       -1.7912217246       38.6457814460
  H         1.5450251486       -2.4684546837       17.9508414165
  H         2.5102983399       -3.2899117566       16.8305276060
  H         1.6053486886       -1.8468395312       16.2832151715
  H        18.7186318165        3.0887092288       22.0188549094
  H        18.3207464616        1.4910847128       21.7254111425
  H        19.5650003795        1.8919914684       22.7858504113
  C        12.8378654385        7.5627721394       10.0875406633
  N        12.4260274533        8.8825831275        9.9711980735
  O        10.9758999367       10.2942936994       11.2984714711
  S        13.4993890659        6.7478415140        8.6962182159
  C        12.5662252188        9.7599228700        8.8322784461
  H        12.5984677986       10.7413566329        9.2171769316
  H        13.5543386155        9.6041446804        8.3288641571
  C        11.3931073483        9.5719289145        7.8100850253
  H        11.5113644376        8.6869460187        7.1595594463
  H        10.4481904617        9.4911008555        8.4388687982
  H        11.2720659973       10.3488404250        7.1295781997
  H        -2.4757511077       15.0515318487       16.5084418950
  C        -2.5222815235       13.9569935303       16.2957796494
  H        -3.6030675087       13.6969774602       16.2874589282
  C        -1.7137750697       13.2339226715       17.3733026899
  C        -2.0360441128       13.6759526853       14.8433292361
  C        -2.2160238690       13.5659971870       18.7657548699
  H        -1.8682815282       12.1805343543       17.1443206191
  H        -0.6211319260       13.4498394607       17.2816351975
  H        -1.9410581445       12.5939939741       14.5597422909
  H        -2.5706201768       14.0794880523       14.0758563860
  H        -0.9861073001       14.0650060291       14.8599626134
  C        -1.3229436481       12.8525817377       19.7526389066
  H        -3.2908608907       13.2665597350       18.7605917308
  H        -2.1269802053       14.6748647385       18.9408904672
  C        -1.7704970555       12.7601922860       21.2330531303
  H        -1.1241493921       11.8530512010       19.3843570711
  H        -0.2839687153       13.2389359183       19.7790303925
  C        -0.5820529418       12.2192685918       22.0799290904
  H        -2.5551428355       12.0626232168       21.2734726361
  H        -2.1040097029       13.7727027897       21.4435634777
  C         0.3412148171       13.3324511786       22.6364662451
  H        -0.8301917703       11.4471894284       22.7845989418
  H         0.0091295268       11.7274455597       21.3150134968
  C         1.5266048189       12.6871069495       23.4166505559
  H         0.7503264451       13.9757960911       21.8773279577
  H        -0.1310625984       13.9742950103       23.3571321559
  C         1.9788158991       11.3938700309       22.7721938988
  C         1.0725784098       12.0060856719       24.5997714772
  C         2.7189887939       13.6878061063       23.5082379923
  C         1.6998150773       10.3012613966       23.5499945792
  C         2.5641384654       10.9949809994       21.5616696362
  C         1.0921152748       10.6437093430       24.7429531273
  C         0.5045749675       12.7195214813       25.6900181642
  H         2.9850130675       14.1079103553       22.4931735977
  H         2.3908090221       14.5333043768       24.0673886130
  C         3.9702375849       13.2418598111       24.1432863354
  S         2.1976195964        8.7575493021       22.8040736359
  C         2.5930882083        9.6464705022       21.3391214934
  H         2.9573139563       11.7621012410       20.9198159000
  C         0.5512846852        9.9945921813       25.7997446012
  H         0.6196137459       13.7938067484       25.6248038067
  C         0.0514367039       12.0954853742       26.7833366297
  H         4.3108327012       12.4126849088       23.5349548014
  H         3.8221323416       12.6307022746       25.0102033711
  C         5.0290458552       14.3296877976       24.1668369242
  C         2.9672570468        9.0140860091       20.0636286694
  C         0.0224251492       10.7517480979       26.8933021528
  H         0.6085116845        8.9087327153       25.8106335930
  C        -0.3674856458       12.4816575319       28.0133932392
  H         5.7698055006       14.0996508876       24.9461647228
  H         4.4675636958       15.1427249746       24.6073683190
  C         5.6645233643       14.6001123485       22.8424639282
  C         2.9076208383        7.5940710819       19.8207477376
  C         3.2273321184        9.9177529081       18.8698884883
  C        -0.4416554408       10.0958559421       28.1488235901
  C        -0.5845333089       11.4059509701       28.8755677813
  S        -0.5736399377       13.9736889292       28.8065639263
  H         6.4126650033       15.4334895669       22.9601479821
  H         4.9785135919       14.8969827099       22.1367993166
  C         6.2945355106       13.3872499771       22.1557500787
  N         2.5528160970        6.5562411950       20.7323097965
  C         3.1516346085        7.1417928460       18.5497736831
  C         3.5429197884        9.4908705322       17.6094557958
  H         3.3030427347       11.0013675762       18.9985277777
  C         0.6868560690        9.2280522571       28.8317176891
  C        -1.7393844349        9.2847458296       27.9796269150
  C        -0.9726269340       11.8192280776       30.1608908216
  C        -0.9111605795       13.1809050100       30.3305798275
  H         6.8814083135       12.8402782079       22.9510036353
  H         5.5145549879       12.7837022343       21.7606343157
  C         7.4064688814       13.6761199842       21.0719612604
  S         2.6708268367        5.1761431714       19.9799140620
  N         3.1043874821        5.7419692619       18.4771232027
  C         3.5668565739        7.9823988919       17.4261838724
  H         3.8669008224       10.2630005184       16.9668390766
  H         1.0418996232        8.5415347727       28.0704006590
  H         0.2270897645        8.5280893995       29.5686413828
  C         1.7474474895        9.9151006890       29.6741743901
  H        -1.6799351242        8.4327028927       27.2314824010
  H        -2.2011968204        8.8472210857       28.9086996049
  C        -2.8620193828       10.1381039464       27.4651381387
  H        -1.2785087930       11.1516595276       30.9209217850
  C        -1.2603886668       13.9729057370       31.5251418187
  H         8.2149563576       12.9401900012       21.1366283310
  H         7.7960667367       14.6683009901       21.2577426378
  C         6.8458911147       13.5390716350       19.6711125971
  C         3.8221065476        7.3677997386       16.1836885439
  H         2.2248797569       10.6746597544       29.0667008393
  H         1.3214139716       10.2485560405       30.6499194818
  C         2.8050602243        8.9497787458       30.0888920686
  H        -2.5785966764       10.5057704533       26.4899156540
  H        -2.8727720987       11.0081955497       28.1472833753
  C        -4.1485729637        9.3287833847       27.3889509828
  C        -1.2776656890       15.3586353914       31.6997460680
  C        -1.5406086179       13.2063667481       32.7524136494
  H         6.7256180842       12.4842552633       19.4896833100
  H         5.8503195512       13.9877326869       19.5529130035
  C         7.8265096703       14.0428605528       18.6262561019
  H         4.0120694383        6.2824919446       16.1980543741
  C         4.0485545930        7.8390340223       14.9063773762
  H         3.2041132741        8.3871294394       29.2239069830
  H         2.3120298322        8.2457702476       30.7693446547
  C         4.0684158389        9.5653294089       30.6755584149
  H        -4.1711196207        8.6702598752       26.5380248356
  H        -4.2770907134        8.7027893450       28.2828527676
  C        -5.3689657769       10.2116333399       27.3171392152
  N        -0.9381864610       16.2062218436       30.6466867964
  C        -1.6237659913       15.9758689695       32.8728488535
  C        -1.8278540106       13.8671436606       34.0165003925
  H        -1.4443373375       12.1619336954       32.7845219102
  H         8.4100478649       14.8972788351       18.9825598666
  H         8.5381821229       13.2531731603       18.4160279069
  H         7.3272695652       14.3778837992       17.7748721973
  S         4.1769958305        9.4668309814       14.4786088821
  C         4.1342262404        6.9134259410       13.7803248412
  H         4.2463737978       10.4671871802       30.0319247911
  H         3.9507583718        9.9751819090       31.7041363076
  C         5.3005936986        8.7161468558       30.5363298421
  H        -5.0632732376       11.0501826193       26.6972529182
  H        -5.6964095171       10.6881728811       28.2593407454
  C        -6.5275840536        9.6013498466       26.5038854753
  S        -0.9099658697       17.7155316150       31.2475950831
  N        -1.5191882899       17.4221813197       32.7336069097
  C        -1.8943347255       15.3291835795       34.0964422731
  H        -1.9454036032       13.3201962609       34.9235625840
  C         4.3141061153        8.9954864888       12.7550157939
  N         4.3046576644        7.6392146628       12.6154910206
  O         4.2054084806        5.6628337851       13.9314182934
  H         6.0762732061        9.4297508089       30.2024275261
  H         5.2210567345        8.0283332433       29.7095824354
  C         5.8296102883        7.9477485050       31.7633390720
  H        -6.0793704551        8.8835446203       25.8238472999
  H        -7.0892855396        9.1068477040       27.3025097770
  C        -7.3580764018       10.6079597355       25.6774238965
  C        -2.1708158401       16.1244165638       35.2336601969
  S         4.6433138180       10.1836133431       11.4217352959
  C         4.4421445794        6.9196651903       11.2996436063
  H         6.2348001863        8.6817083493       32.4646101356
  H         4.9735196508        7.6455871332       32.3748281326
  C         6.8426520212        6.8338578243       31.3768611779
  H        -6.6966076341       10.7806619493       24.7730458732
  H        -7.6503000234       11.5692384099       26.1193212171
  C        -8.5868344564        9.8809812733       25.2998181505
  H        -2.0122242144       17.1913325723       35.1290881065
  C        -2.5911610066       15.7478248062       36.4904517490
  H         5.3080596967        7.2436286434       10.6866740402
  H         4.7085652174        5.8633620110       11.5467630185
  C         3.1914878960        7.0685131326       10.5002075412
  H         7.5178888292        6.7282495643       32.2613865412
  H         7.4269703351        6.9552840327       30.5261726510
  C         6.1640333075        5.4599116446       31.2757714316
  H        -8.9298667041       10.3128379671       24.3893717030
  H        -8.4993791115        8.8173155727       25.0833900038
  C        -9.5797821059       10.0558407033       26.4131474254
  S        -3.0453942997       14.2279169021       37.0516362298
  C        -2.6829900862       16.8205946599       37.4681809410
  H         3.0180297237        6.0952586503        9.9955079529
  H         2.4123845840        7.3993505541       11.1192902803
  H         3.3052247176        7.8630097404        9.8468682412
  H         6.5074639490        4.7918825709       30.5250653259
  H         5.0278345832        5.5565847919       31.2218465566
  H         6.2988314889        4.8897062812       32.2648003823
  H        -9.3281709694        9.4630528977       27.2717267534
  H       -10.5265806559        9.6183923266       26.1439226149
  H        -9.7663408808       11.0565167841       26.6838831132
  C        -3.3385646663       14.9720456654       38.6086489364
  N        -3.2194110244       16.3262784787       38.5694786493
  O        -2.4731149321       18.0030575255       37.2328170964
  S        -4.1057112636       14.2635573995       40.0671149429
  C        -3.4352546508       17.1750359399       39.7249066137
  H        -3.3411163481       18.2599221625       39.4544207987
  H        -4.3460083284       16.9733998332       40.1739254416
  C        -2.2097042022       16.9896650430       40.7540973876
  H        -2.5619905940       16.7408739666       41.7410332160
  H        -1.5706002139       16.1919422135       40.4039437696
  H        -1.6288247647       17.9136794622       40.8205516414
