352
 i =    31600, time =    31600.000, E =        25.0625228977
  H        12.1771558118        5.1410359921       32.4912893589
  C        11.2938157554        5.7316039702       32.4748199154
  H        10.4899860489        5.0251809552       32.2254494697
  C        11.3771620080        6.9434563354       31.5148682172
  C        11.1607951059        6.2051960575       33.8939639139
  C        11.7371593252        6.5580322085       29.9971625269
  H        10.3643313464        7.3458238102       31.5581447908
  H        12.1156382169        7.6305591867       31.8629553496
  H        10.0651396195        6.2918288564       34.0676015555
  H        11.5018566578        5.3844887617       34.6192405813
  H        11.5946526823        7.2327637245       34.1036037546
  C        10.5487585811        5.9607607496       29.1548783783
  H        12.4978430270        5.8282007362       30.0851940905
  H        12.1741736493        7.3924478027       29.4090831902
  C        10.7632557858        5.9685439448       27.7232237948
  H        10.4152583206        4.9794180193       29.5318165079
  H         9.5859005157        6.5142803450       29.2738427875
  C         9.7577566131        5.1108773270       26.9501828144
  H        11.6658256412        5.5415999258       27.4003020412
  H        10.9299965921        6.9734369694       27.3798983548
  C         8.6196399187        5.9677109049       26.3648686658
  H        10.1733911599        4.5537316786       26.1715511563
  H         9.3784641440        4.3137669662       27.6310136409
  C         7.5477262995        5.1921748166       25.6322827722
  H         8.2366995635        6.5501227852       27.1760923051
  H         9.2253511155        6.6295055429       25.7842204467
  C         7.1530157607        3.8682400740       26.2892805177
  C         7.9480766547        4.4373549678       24.4205828615
  C         6.3016048037        6.0596843823       25.3921988050
  C         7.3485569231        2.7800428268       25.4798827942
  C         6.6493584856        3.5723830715       27.5820420143
  C         7.7474155647        3.1282339148       24.2436293835
  C         8.4888034546        5.1193253811       23.3652969165
  H         6.5625561689        6.9176346355       24.8835393868
  H         5.9997134324        6.3273398297       26.3796793815
  C         5.1188335492        5.3276638967       24.6961363224
  S         6.8447794704        1.3080768189       26.2025141247
  C         6.3743874488        2.2064905971       27.6318435303
  H         6.5824072100        4.4643678800       28.2630827842
  C         8.0899739282        2.4744853432       23.0697197546
  H         8.5793970944        6.1625761959       23.4221500234
  C         8.8005896373        4.5601083686       22.1621410656
  H         5.2277533479        5.2647527869       23.6249856273
  H         4.9183511707        4.3349425001       25.1690055457
  C         3.7988129267        6.1647437654       24.7063569160
  C         5.9218763946        1.5160139935       28.8735501149
  C         8.6952773729        3.2011052716       21.9932166023
  H         8.0244916312        1.4692414807       22.9491703489
  C         9.1198780746        4.9327110315       20.8603678377
  H         3.0714086505        5.6182612955       24.1508746763
  H         3.8820696926        7.1768627239       24.3354557470
  C         3.2023410954        6.4140024354       26.0269543197
  C         5.9748556805        0.1447262206       29.1316747178
  C         5.5020713889        2.3952396024       30.0063186317
  C         9.0543075407        2.5616082224       20.7210135346
  C         9.4205039682        3.8568434178       20.0450623832
  S         9.4793727120        6.4829447116       20.1384913596
  H         2.3333041731        6.9956989408       25.9174111684
  H         3.7791730352        7.1310522753       26.5967368264
  C         2.9755233499        5.1280975666       26.8506221148
  N         6.3311639430       -0.8711554956       28.2060337509
  C         5.7173168655       -0.4359623173       30.4183088962
  C         5.1248828605        1.8490841253       31.2420021144
  H         5.3919805301        3.4247145704       29.8415607455
  C         7.9044369114        1.8278496775       20.0573591385
  C        10.2953493847        1.6657352420       20.7747655632
  C         9.8385784369        4.2508831709       18.7613294432
  C         9.9813412223        5.6278931480       18.6969320721
  H         2.5877946248        4.3958256162       26.1230198294
  H         3.8487301288        4.5746687495       27.2322442276
  C         1.9535481347        5.2676487183       28.0292515711
  S         6.3270769483       -2.2965378314       28.9873896094
  N         5.9758910945       -1.7713716100       30.4761172849
  C         5.2623772146        0.3956933905       31.5125377430
  H         4.8874371566        2.5058501138       32.0512781263
  H         7.6020240805        0.9781394160       20.6764383363
  H         8.2792533139        1.2254336898       19.2256089915
  C         6.7583697294        2.7632506607       19.7339395127
  H        10.6185082054        1.3364283159       19.8483171584
  H        10.0031925867        0.8667237020       21.4749684133
  C        11.4630055145        2.3717647465       21.4871398515
  H        10.1200738099        3.5400161203       17.9586127547
  C        10.2135548460        6.4059939119       17.4331193987
  H         1.3252500633        4.3805153277       28.1419011938
  H         1.2934456376        6.1596492730       27.7278069016
  C         2.7412888644        5.5758374560       29.1957426473
  C         5.1143033546       -0.2249783784       32.7893719029
  H         7.1290051036        3.5314220509       19.0354706036
  H         6.4038098951        3.3440857737       20.6157691732
  C         5.6420535202        2.0009022383       19.1159468430
  H        11.1047275420        2.4099672018       22.5466063375
  H        11.6821167793        3.4026297592       21.1602740942
  C        12.7141800427        1.5504420018       21.4470529395
  C        10.3866171333        7.7880214947       17.3020193087
  C        10.2648976060        5.6879281899       16.1373784140
  H         3.0755880677        4.6614446053       29.6083527678
  H         3.6634894214        6.0221244178       28.9465118013
  C         1.8205795658        6.3068282260       30.2491327587
  H         5.3707849749       -1.2895198455       32.7366567666
  C         4.8068292603        0.1755055330       34.0639108278
  H         5.3350404210        1.2434501465       19.7945798579
  H         6.0705676168        1.5967494204       18.2008820188
  C         4.4255752462        2.8726983512       18.7408446215
  H        12.7013672144        0.9021687238       22.2627409434
  H        12.6394141363        0.9336887545       20.5288319793
  C        13.9658528234        2.4636963792       21.3897691147
  N        10.2049850767        8.7344178278       18.3633233119
  C        10.6775693552        8.5111643580       16.1567418364
  C        10.5174798972        6.3943604959       14.9118829901
  H        10.1528114303        4.6165703033       16.0543325955
  H         1.1698379521        5.5505775683       30.5976285147
  H         2.2592232937        6.6936162012       31.1473331729
  H         1.1009480689        7.0830208979       29.9097061191
  S         4.3546910867        1.7261172326       34.5917186714
  C         4.9145336974       -0.8449833577       35.0797392589
  H         4.2496862244        3.7605114911       19.3236961344
  H         4.6367376937        3.2432199548       17.7318045761
  C         3.1025156696        2.0984894489       18.5799583995
  H        13.9538757721        3.0426066699       20.5237851030
  H        14.7530055938        1.7289017787       21.1853242465
  C        14.1042017800        3.4021916009       22.6478647182
  S        10.1681294952       10.2067884626       17.8018168323
  N        10.5367754975        9.8602010715       16.2476796250
  C        10.8039410864        7.8685303681       14.9102472349
  H        10.4846242760        5.8772019247       13.8972474750
  C         4.2187165543        1.0383366741       36.2280527443
  N         4.5997553861       -0.2965303344       36.2741029506
  O         5.3644048536       -1.9951199974       34.8163486992
  H         2.3681216634        2.8822896970       18.1854634714
  H         2.7474069572        1.7444242296       19.5918703489
  C         3.2282708914        0.9395153958       17.5599939868
  H        14.4519105459        4.3107507360       22.3572694746
  H        13.1565410124        3.7165191419       23.0737581630
  C        15.0694822571        2.8189783779       23.6734382434
  C        11.1018061642        8.6554514598       13.7365226554
  S         3.7921154189        1.7273903443       37.7606301543
  C         4.7194348959       -1.0730909753       37.5194465399
  H         2.3446463374        1.0395991418       16.9008724437
  H         4.1596092323        0.8878603624       16.9419928718
  C         3.0723241854       -0.4895975571       18.1497951930
  H        14.7467421566        1.7460791313       23.7507514919
  H        14.9336623625        3.0033634408       24.7656871587
  C        16.5457376736        3.1162542123       23.2197420532
  H        11.0023430644        9.6916869856       13.8628177021
  C        11.6308454536        8.3204971138       12.5231256992
  H         3.9541793810       -0.9072223795       38.2198872907
  H         4.6662518372       -2.1608895534       37.4318433621
  C         6.1136770844       -0.8452390466       38.1544760229
  H         3.4171325833       -0.3556411937       19.2086037434
  H         3.7527108645       -1.1888062802       17.5731586933
  C         1.5981885857       -0.9771302207       18.4194295096
  H        16.5149655174        3.8107754166       22.4049698792
  H        17.0867237262        3.6493650136       24.0277066962
  C        17.1947203471        1.7618244846       22.8327985323
  S        11.9660545538        6.7343444034       11.9153796115
  C        11.8688724438        9.4285590599       11.5818286246
  H         6.8941757087       -0.4640142073       37.5441791369
  H         6.0151591626       -0.2470085240       39.0268473049
  H         6.4095671243       -1.8357334314       38.4829547331
  H         1.5528221116       -2.0640227069       18.7091096461
  H         0.9807378060       -0.9189372593       17.5328777760
  H         1.1781056019       -0.2721561452       19.1623303923
  H        18.2118136102        1.8377487554       23.1904626711
  H        17.2319841667        1.5828321871       21.7762678207
  H        16.7569066416        0.9302040246       23.4541378001
  C        12.4484596780        7.5119991662       10.4659282098
  N        12.3778189767        8.9194216945       10.4876291815
  O        11.4449256913       10.5702455400       11.6519309903
  S        12.5865232168        6.8220892544        8.8395330128
  C        12.6272484454        9.7843831406        9.3023541513
  H        12.8951493546       10.7880047676        9.6086304861
  H        13.4259511727        9.4726771133        8.6651451061
  C        11.4061152713        9.9144645626        8.4309465621
  H        11.2687738862       10.9338531748        8.0815301399
  H        11.6308855412        9.3844726131        7.5482915962
  H        10.4435168972        9.5649123487        8.8685613727
  H        -2.9270440662       15.3160316551       16.5434040515
  C        -2.9748570795       14.2225082808       16.3685780052
  H        -3.9280517158       13.8011315423       16.4294962348
  C        -2.0738802747       13.5871416544       17.4586129450
  C        -2.3331907341       13.8436414117       15.0202005779
  C        -2.6364708887       13.7803858177       18.8679134200
  H        -1.9712541966       12.5660246305       17.3135943057
  H        -1.0806309416       14.1025645711       17.4728847078
  H        -1.3095637174       14.0705221191       14.8803087802
  H        -2.3733623390       12.7720060139       14.8198943872
  H        -2.9939368376       14.1362652447       14.2299287142
  C        -1.5219757331       13.5882937456       19.9307477870
  H        -3.4355710924       13.0139113536       19.1261644200
  H        -3.0267320229       14.7666203880       18.8029056172
  C        -1.9701202174       13.6516345326       21.3299469040
  H        -1.1275389349       12.6063315527       19.7384383693
  H        -0.6410137776       14.1744801878       19.7267361914
  C        -0.8629312030       12.9232301300       22.1315004924
  H        -2.9606201601       13.1930628919       21.4563242902
  H        -2.0594047683       14.7040954312       21.6570260602
  C         0.2874465132       13.8404180952       22.6244035936
  H        -1.2271680294       12.5024474163       23.0683652704
  H        -0.4528237350       12.0565355710       21.6057192717
  C         1.4766294535       13.1552756490       23.4515988455
  H         0.7163417289       14.2440527317       21.7150316741
  H        -0.1505008676       14.7695008790       23.0752416602
  C         1.7409633526       11.8368398831       22.7137875939
  C         0.9394564464       12.3732798409       24.5603278234
  C         2.7793115661       13.9639003423       23.5831364638
  C         1.3149043994       10.7113596589       23.4006314851
  C         2.1990790064       11.5041752635       21.3709782501
  C         0.9447359931       11.0475344435       24.6569701070
  C         0.4811732567       13.0793696678       25.6656631400
  H         2.9644278966       14.4409903785       22.6291599558
  H         2.7409757385       14.7894236012       24.2670144445
  C         3.9455629081       13.1022051539       23.8285967464
  S         1.6604761447        9.2151970759       22.5766668373
  C         2.1928717168       10.1627574768       21.1940152107
  H         2.2900168652       12.2475449581       20.6265622139
  C         0.3816951411       10.4650521791       25.7187406507
  H         0.4289532399       14.1522684097       25.5730520765
  C        -0.0047182325       12.4599003592       26.8139550732
  H         4.0820587171       12.2990545550       23.1217455916
  H         3.7840936698       12.5621313717       24.7768207195
  C         5.1356111696       14.0201971257       23.9394165880
  C         2.7288384436        9.4182153381       20.0133521973
  C         0.0467674652       11.1158869497       26.9530671918
  H         0.2151508194        9.3992505683       25.6299746142
  C        -0.5003550534       12.9106351358       28.0552341103
  H         5.7870850312       13.4618950843       24.6523100024
  H         4.9000904648       14.9581908847       24.4317514150
  C         5.8230665721       14.2173529567       22.5619567573
  C         2.7441616873        8.0827366098       19.7931019210
  C         3.1186124119       10.3276931131       18.8505173996
  C        -0.5011933268       10.4359523324       28.1889197740
  C        -0.8159864345       11.8143352052       28.8287081477
  S        -0.6268669449       14.3819676718       28.8194421562
  H         6.4218658751       15.1292942628       22.7133109132
  H         5.0533122413       14.3895471993       21.8242861872
  C         6.7100154073       13.0288219576       22.1348126576
  N         2.5293631823        7.0965802859       20.7422670146
  C         3.1892873538        7.5739208836       18.5754316490
  C         3.4459354785        9.8057969856       17.5503533774
  H         3.2417959127       11.3957854044       18.9670047070
  C         0.5716816122        9.6860827412       29.0373785174
  C        -1.7264139001        9.5802398486       27.9545119057
  C        -1.3204646735       12.2770133361       30.0451325014
  C        -1.0998745883       13.6214008934       30.2305662660
  H         7.3182167454       12.7918327236       22.8932122370
  H         6.2128072506       12.1419253383       21.8368935600
  C         7.6037552329       13.4622095892       21.0037324935
  S         2.5621154625        5.7073770875       19.9433906726
  N         3.2050013835        6.1588473657       18.5940075206
  C         3.4441729209        8.3422833855       17.3965652512
  H         3.5075732859       10.4920191440       16.7347573260
  H         0.8818624948        8.9010118479       28.3870232489
  H         0.1663287849        9.2992629551       29.9515137297
  C         1.8090161771       10.5320735457       29.4953200104
  H        -1.5157467035        8.6469435697       27.5220663197
  H        -1.9834613395        9.1205068769       28.9462849781
  C        -2.8512166962       10.3470089509       27.3033030668
  H        -1.8193778779       11.6101771514       30.7506379309
  C        -1.3710115117       14.4259600750       31.4589258124
  H         8.0394506849       12.5929339767       20.5201457694
  H         8.4697052464       14.0477374205       21.3492412441
  C         6.7961284567       14.1158755632       19.7959710892
  C         3.6237357477        7.6263902206       16.1832234497
  H         2.2101619274       11.0245569961       28.6253885047
  H         1.3091029822       11.1899842739       30.1464070155
  C         2.8202352478        9.7229054200       30.2982284730
  H        -2.6253839610       10.9179683221       26.4534175704
  H        -3.1715926422       11.0985053030       28.0062253007
  C        -4.1007016440        9.6219636598       27.0126115713
  C        -1.3846691313       15.8351048169       31.6295835343
  C        -1.4388102818       13.6272962313       32.7018385137
  H         6.0813505003       14.9095134071       20.0283785824
  H         7.3331709196       14.5541395133       18.9677300391
  C         6.0201832452       13.1095573283       19.0528430022
  H         3.1871241992        6.6003979298       16.2539131076
  C         3.8557288394        8.0260011434       14.8651774177
  H         3.2244981598        9.0212581299       29.6225272232
  H         2.3455421268        9.2569811677       31.0999255613
  C         3.9834564928       10.5337335217       30.9058919291
  H        -3.9652962129        8.7969641128       26.3464105524
  H        -4.3692340905        9.0343011265       27.9202616872
  C        -5.3612805098       10.3472154917       26.8431343463
  N        -1.2295887882       16.7817866259       30.6040696225
  C        -1.6355072237       16.4153163319       32.8539758604
  C        -1.6888593561       14.2145935012       33.9514214022
  H        -1.3318309824       12.6052289109       32.6253965849
  H         6.6849213490       12.4137902473       18.6350683803
  H         5.3412439684       12.5238728019       19.5885911707
  H         5.5193535897       13.7376236634       18.3082501731
  S         4.3051709781        9.6296395772       14.2973401959
  C         3.7080464745        7.0362265223       13.7920486524
  H         3.9038007353       11.5053728399       30.4950388734
  H         3.8510178980       10.6319567165       31.9436613007
  C         5.4322719819       10.1142417946       30.6374271042
  H        -5.3617562808       11.2460247656       27.4304544858
  H        -6.1882797007        9.7848732693       27.2239238799
  C        -5.5210131380       10.7601122621       25.4000253020
  S        -1.1799705110       18.2650413029       31.2006588240
  N        -1.7226768451       17.8526395323       32.7406543058
  C        -1.8757946611       15.7504226373       34.0566394403
  H        -1.7506902733       13.6101043571       34.8472182529
  C         4.3226454324        8.9134450728       12.6736259073
  N         4.1161024931        7.5523010045       12.6767313148
  O         3.5190181514        5.8210826738       14.0443605417
  H         5.9914422577       10.7650962623       31.1628859915
  H         5.7195841833       10.1624514646       29.5908013742
  C         5.7324359657        8.6944224497       31.0641595188
  H        -4.7246540460       11.4672326259       25.1855730276
  H        -5.2435228422        9.8910398273       24.8249263476
  C        -6.9120696494       11.2145516934       25.0172076104
  C        -2.1906367117       16.5352332180       35.2368078327
  S         4.8031432706        9.7379494559       11.2024915872
  C         4.0328553484        6.7460128209       11.4385087041
  H         6.3509564212        8.6139303900       31.9581822189
  H         4.7980169854        8.1513019291       31.3029832555
  C         6.4172819294        7.9376398728       29.9370515485
  H        -6.8453946778       11.6255222074       24.0692581417
  H        -7.2260174748       11.9569243359       25.7049737777
  C        -7.8922529411       10.0302421337       24.9388985144
  H        -1.9580383469       17.6188870321       35.1039987104
  C        -2.6815054646       16.1522628836       36.4281547307
  H         4.7423063069        7.0288700360       10.6285141121
  H         4.3350460010        5.7484177590       11.6127376353
  C         2.5592803113        6.6055845903       10.8523367165
  H         7.4467965029        8.2038434561       29.7331824741
  H         5.8009411778        7.9659458771       29.0423113302
  C         6.5332045333        6.4654040666       30.4227979889
  H        -8.5391002464       10.3102348756       24.0532585490
  H        -7.3660154904        9.1004249760       24.7432680834
  C        -8.8846698792        9.8205281028       26.0412111556
  S        -3.1752980605       14.5348004953       36.9526858724
  C        -3.0244309364       17.2288138024       37.3824355196
  H         1.8861393906        7.0693938813       11.4955945091
  H         2.3526080164        7.1533117945        9.9791975538
  H         2.2721513951        5.6023323560       10.6732901376
  H         5.5768352234        6.0091271678       30.7299892752
  H         7.3770594202        6.3861353240       31.1897916829
  H         6.8585378207        5.7782973530       29.6417316039
  H        -9.3815124679        8.8640987860       25.9914049808
  H        -9.6334003392       10.5745881462       26.0647573939
  H        -8.3785750941        9.9882681095       26.9657099919
  C        -3.5035013349       15.2836039868       38.4694547112
  N        -3.4549773561       16.6244563060       38.4995363243
  O        -2.5195204710       18.3501078641       37.2658665265
  S        -4.2040631762       14.3744711040       39.8630998971
  C        -3.7633282873       17.4520550956       39.7317725321
  H        -3.8981919996       18.5115775679       39.5061511694
  H        -4.7221125669       17.1611962395       40.0731626508
  C        -2.6058168716       17.3841463481       40.6942443670
  H        -2.4008611994       18.2851903911       41.2891721739
  H        -2.7673951246       16.4846621989       41.3179198471
  H        -1.6851158968       17.1998467593       40.1987246819
