352
 i =      700, time =      700.000, E =        52.7112571952
  H        11.5225029409        6.9919815545       32.5151931317
  C        11.4960480992        5.9126075993       32.5107907857
  H        12.3916309135        5.5708372643       32.1899559058
  C        10.3726461610        5.5925300717       31.4577018016
  C        11.2646601721        5.3603251267       33.8943384518
  C        10.7458304531        6.1060000406       30.0529351688
  H        10.4061828852        4.5338842009       31.3620891917
  H         9.3536258192        5.6842920730       31.7970185878
  H        10.6554035881        6.0743880304       34.4338877111
  H        10.7275170582        4.3733919494       33.9186609448
  H        12.2428793201        5.3600628923       34.2846626274
  C         9.7537632434        5.7140080057       28.9618088034
  H        11.7603898770        5.8037712521       29.7533285507
  H        10.8958618954        7.2088230912       30.0451120488
  C        10.5011701389        5.5671510908       27.5883562430
  H         9.1623267691        4.9503586224       29.3260319259
  H         9.0633315351        6.4521000277       28.7712402738
  C         9.5252347203        4.9540609915       26.6317515052
  H        11.4355807209        4.8854319068       27.8842720344
  H        10.9146471943        6.6253789202       27.2045594890
  C         8.3304419633        5.8773904121       26.2422724287
  H        10.1172186271        4.5906947031       25.7194279328
  H         9.0166774867        4.0491557663       27.1603017444
  C         7.1564138154        5.1779815192       25.4914407438
  H         7.8570356535        6.5143745241       26.9597514754
  H         8.8135053275        6.5237265905       25.4160314901
  C         6.8553490884        3.8523946251       26.2104481440
  C         7.6745868963        4.4141138424       24.2039319503
  C         5.8554467898        6.0950982811       25.3897369900
  C         7.1446734446        2.7248157055       25.4675255428
  C         6.2524733655        3.5222942795       27.4426710036
  C         7.6329778787        3.0595341208       24.1856492847
  C         8.0730273658        5.0818287929       23.0792645947
  H         6.1396733391        6.9465570606       24.6181750265
  H         5.6162487273        6.6389967534       26.3304202891
  C         4.6154571411        5.5544431960       24.7451343709
  S         6.8238538006        1.3221714546       26.2933680978
  C         6.2399391104        2.2428172080       27.6843907506
  H         5.9760069540        4.3586535879       28.0302174351
  C         8.1844564302        2.4173479713       23.1057503459
  H         8.0952101281        6.2088003485       23.1248221632
  C         8.4524536364        4.4225831107       21.9666865629
  H         4.7762811766        5.1986156838       23.6878069952
  H         4.3160977615        4.6242979790       25.1989444651
  C         3.3569056708        6.4846637836       24.6879867150
  C         5.8295106803        1.5697983177       28.9714659443
  C         8.5255830994        3.1127325475       21.9517452468
  H         8.1953534407        1.2756207544       23.0428071609
  C         8.8704381031        4.8653020572       20.7536640879
  H         2.6560790701        6.2881481227       23.7802466527
  H         3.5423226317        7.5274682863       24.4605653049
  C         2.6230025656        6.5412227394       26.0528021022
  C         5.9122914911        0.1441610765       29.1662906453
  C         5.4339241624        2.4455099684       30.0405971869
  C         9.0493462512        2.4342987878       20.6898963804
  C         9.2983086957        3.8450576337       19.9695535102
  S         9.2912078535        6.4027140804       20.0837780340
  H         1.8942215023        7.2847644284       26.0691296375
  H         3.3078304887        6.9527384502       26.7184553546
  C         1.8974828217        5.1676213548       26.3745972545
  N         6.3129289993       -0.7788395813       28.2576022524
  C         5.7149252554       -0.3941591089       30.4037782659
  C         5.1713273527        1.8663730568       31.2929275239
  H         5.4305424678        3.4642722698       29.9716139411
  C         7.9756716343        1.6009904620       19.9563826212
  C        10.3298273253        1.6317124196       20.8697311255
  C         9.7990854985        4.2412911885       18.7392158674
  C         9.7951028638        5.5433440327       18.6136506920
  H         1.3245439827        4.9634381010       25.5658488131
  H         2.4158302957        4.2900932334       26.5086243345
  C         0.9946252640        5.3714338154       27.6430927291
  S         6.3153145027       -2.3008539203       28.9247520989
  N         5.8330936398       -1.8240581026       30.3983940694
  C         5.3212753614        0.4143951897       31.5186061570
  H         4.9083928556        2.4903362986       32.0755674072
  H         7.6475548612        0.8634135930       20.5793976474
  H         8.5202820841        1.1068359169       19.2582652339
  C         6.7031937390        2.3495365589       19.4200368808
  H        10.7367256299        1.1742351637       19.9836797673
  H        10.1757516798        0.8315835202       21.5069923284
  C        11.3399286645        2.5248811950       21.5299777919
  H        10.1713940233        3.4275307820       18.1132808812
  C        10.1982992351        6.3909603685       17.3784458645
  H         0.2969189458        4.5368736543       27.6996651583
  H         0.3238129746        6.2386863147       27.5823962026
  C         1.8777459834        5.5573933401       28.8373524414
  C         5.1030547626       -0.2883551920       32.7762038357
  H         7.1788210152        2.9779743602       18.6264432510
  H         6.3219269407        3.1771532138       20.0518386515
  C         5.7146166258        1.4981326057       18.8036307953
  H        11.0542699593        3.1611773900       22.4972072679
  H        11.5311253543        3.3908766757       20.7581546767
  C        12.5010828245        1.7245049551       22.0030122196
  C        10.3085988213        7.7494264817       17.2059484793
  C        10.2796270957        5.5669987894       16.0917445819
  H         2.8212513233        4.8632318109       28.8058112426
  H         2.4622881905        6.4370659484       28.7160691701
  C         1.2434093807        5.5771107668       30.2596124316
  H         5.3043974877       -1.3524672213       32.7501566496
  C         4.7937364396        0.1002245139       34.0306585396
  H         5.2400193940        0.9899564137       19.5172514893
  H         6.2007450520        0.7347471508       18.3755581775
  C         4.7201633408        2.2570103113       17.8528884273
  H        12.0747572977        1.0223241928       22.7650431175
  H        12.6204468454        0.9450706463       21.2063166566
  C        13.7305029211        2.4797587165       22.2633821987
  N        10.1366953933        8.7165782461       18.2254055434
  C        10.5636293791        8.3798175351       15.9567042154
  C        10.5831124870        6.2049739745       14.8708563672
  H         9.9533060978        4.5109489058       16.0328821701
  H         1.9588166235        5.1631944225       30.7985869584
  H         1.0382768964        6.6044337565       30.4624044516
  H         0.2204852006        5.0200912271       30.2112604452
  S         4.4044278608        1.7712971286       34.5494237484
  C         4.6879939506       -0.9014205027       35.0465186172
  H         4.8261525257        3.3659246326       18.2130628382
  H         5.1261182344        2.3057174139       16.8062799480
  C         3.2098457688        1.7640431366       17.8358499567
  H        13.5541993457        3.1843127810       23.0782462105
  H        13.8878270477        3.0101074640       21.4030275022
  C        14.8871497649        1.5197692255       22.6186001022
  S        10.1196497762       10.2223838525       17.5325418891
  N        10.6837311330        9.7602092028       16.0771209847
  C        10.6992310151        7.6972478219       14.8184493166
  H        10.5259489195        5.7525703733       13.9434361800
  C         4.1407592144        0.9908011922       36.1445353365
  N         4.2253838423       -0.3001185477       36.1959413972
  O         4.7347323551       -2.1452309932       34.8384610247
  H         2.6134792485        2.4574534266       17.2430839028
  H         2.9263443506        1.7174950396       18.8394956153
  C         3.1634549391        0.2744102230       17.3138722637
  H        14.7050824349        1.0194202109       23.5281511893
  H        15.1884306865        0.9273279162       21.8113828022
  C        16.0864873613        2.4310454045       23.0164471537
  C        10.8133736130        8.3937325731       13.6024719305
  S         3.4846145040        1.9390346847       37.4976561081
  C         4.1002122668       -1.0739611866       37.3832859044
  H         2.8541267744        0.3393240605       16.3361239686
  H         4.1649214215       -0.1272046265       17.2191905765
  C         2.0881305939       -0.6495175659       18.0826733684
  H        15.7559832909        2.7428474085       23.9943637785
  H        16.1190260538        3.2425307795       22.2475813060
  C        17.4822932185        1.8512289694       23.0934528009
  H        10.4774851677        9.3871274158       13.6730470144
  C        11.4618816591        8.0670500041       12.3981467694
  H         3.2300075276       -0.6779425118       37.9785644275
  H         4.1095536789       -2.1327784681       37.1474605697
  C         5.4275844948       -1.0985628609       38.2122976428
  H         1.2240591034        0.0329016346       18.2576340067
  H         2.5834554634       -0.7333420316       19.1062304651
  C         1.7915728848       -1.8863547628       17.2987551441
  H        18.0069317227        2.3196811458       23.7733007752
  H        17.4073071729        0.8514770374       23.3813080421
  C        18.3466242051        2.1991377168       21.8203025430
  S        12.1908788548        6.5329546544       11.9445269459
  C        11.4508112857        9.0412515824       11.3321520533
  H         5.1996922576       -0.8594577764       39.2500775187
  H         5.7713659101       -2.0512697482       37.9653980243
  H         6.1410553292       -0.2326341383       37.9772860971
  H         0.9260288196       -2.3227357867       17.7365058660
  H         2.7002156862       -2.5152937765       17.3193732523
  H         1.4838337174       -1.6611921497       16.2768927488
  H        19.1176149289        1.4086478014       21.6562703003
  H        18.8335907474        3.1031741877       21.8310277047
  H        17.7056074355        2.0010238889       21.0414885406
  C        12.5397599013        7.2928656051       10.4565222880
  N        12.3163947697        8.5820498929       10.3473238775
  O        11.0033765833       10.1702143452       11.3395338908
  S        13.2726390999        6.3695013956        9.1090300557
  C        12.5352113381        9.3632297743        9.1978701548
  H        12.6282961351       10.4387133689        9.4153437259
  H        13.5140601824        8.8740174441        8.7618647635
  C        11.3948235901        9.1884492683        8.0750196234
  H        10.4494935099        9.3501193307        8.5721398562
  H        11.3861594259        9.7492472477        7.2936719642
  H        11.4760411801        8.1894005577        7.7272374070
  H        -3.8025491144       15.2134336302       16.2352621317
  C        -3.2894492267       14.2985464706       16.4327687026
  H        -4.0382460087       13.6710017366       16.6878912267
  C        -2.2722803000       14.4448753420       17.4452150066
  C        -2.6939671194       13.7345727928       15.1426611159
  C        -2.6397936756       14.0057537347       18.8713172642
  H        -1.3843598336       13.9291723944       17.3078335017
  H        -2.0006732630       15.3675577019       17.5501829255
  H        -3.2916437422       13.7985993044       14.2499945737
  H        -1.6855332345       14.2190144452       14.9462950450
  H        -2.4517704178       12.6452533282       15.2160857085
  C        -1.4718671827       14.2533330178       20.0160516932
  H        -2.7325425306       12.9232981538       18.9133783221
  H        -3.5165917919       14.4771091853       19.1582144897
  C        -2.0424014070       13.9464016819       21.3197925128
  H        -0.6916500407       13.6741343180       19.5683532365
  H        -1.3237574060       15.3563501009       19.8773962492
  C        -1.0190363470       12.9643571227       22.1616838978
  H        -2.9498541371       13.3564479771       21.2862145563
  H        -2.1513024911       14.8372956405       21.9149574703
  C         0.2215803843       13.8154356103       22.6499785293
  H        -1.7094713834       12.6022051561       23.0736126598
  H        -0.7493724157       12.0628748330       21.5724839690
  C         1.2628845128       12.9675605075       23.3406090323
  H         0.8596900356       14.1424022635       21.7948203631
  H        -0.1086342628       14.7830839749       23.1136597417
  C         1.5976855930       11.6673979717       22.6156015497
  C         0.8104909820       12.2345138581       24.5965069186
  C         2.4698983545       13.9538347459       23.4839444293
  C         1.4178607207       10.5422071649       23.4046487063
  C         2.0387831778       11.3217520479       21.3424012828
  C         0.8973005624       10.9213529282       24.6512717154
  C         0.3615087541       12.9293764869       25.7151229063
  H         2.7798245659       14.4565334469       22.5189699435
  H         2.4343660121       14.8020308486       24.1466759735
  C         3.7250745003       13.2137896873       24.0524507395
  S         1.7273182067        9.0709706512       22.6939714186
  C         2.0884868069        9.9835169542       21.1967887263
  H         2.1320605522       12.0504196080       20.6555608793
  C         0.5707684534       10.2992552521       25.8310743607
  H         0.2658135132       14.0335487429       25.7257533747
  C         0.0863067328       12.2958865454       26.8222788747
  H         3.8255116321       12.2991154905       23.5016035404
  H         3.4771668987       12.7250706684       25.0209217606
  C         4.9928858585       14.0054265469       24.1317547551
  C         2.5177367410        9.2708563033       19.9153951543
  C         0.1473187220       10.9594883638       26.8894847522
  H         0.6671231140        9.1344652598       25.7806663443
  C        -0.3822726899       12.6343842979       28.0905985843
  H         5.6496809811       13.5226440523       25.0086298697
  H         4.8275776940       15.0765289825       24.6293993516
  C         5.8185498298       14.2028324924       22.8148788793
  C         2.6069954806        7.9439178923       19.6673568555
  C         3.0894978206       10.1726756316       18.8688141100
  C        -0.2592799215       10.2966459250       28.2125684339
  C        -0.6750156533       11.6113790944       28.9300844396
  S        -0.8406968139       14.1191571326       28.7505262934
  H         6.7680540837       14.7987894133       23.0320970389
  H         5.1672846614       14.8947178217       22.2462722952
  C         6.2720898105       12.9399765339       22.1451537178
  N         2.4377252862        6.9335419345       20.6694100272
  C         2.8938030850        7.3984510796       18.3743458959
  C         3.2958430570        9.6612149155       17.5331674641
  H         3.1275405648       11.1903494101       19.0512610813
  C         0.9062214775        9.5818678650       28.9332546438
  C        -1.5156125179        9.4343567143       28.1585385372
  C        -1.2213122598       11.9199494679       30.1500843144
  C        -1.2443674794       13.2571801013       30.2562140125
  H         6.7048584278       12.3340071600       22.9130197304
  H         5.5136316671       12.4057609944       21.6349310226
  C         7.1928244458       13.2319694968       21.0533241367
  S         2.5306807108        5.4530585288       19.9753711866
  N         2.7122518296        5.9468193956       18.3850118209
  C         3.0824805064        8.2038714452       17.3015339327
  H         3.6847380329       10.1974199724       16.7759412773
  H         1.4317939795        8.9335649573       28.2781704747
  H         0.4479576973        8.8638414722       29.6613286899
  C         2.0409037441       10.5298233619       29.5832750726
  H        -1.3409348843        8.5229886679       27.5084243355
  H        -1.8540436583        9.0625785084       29.2593618701
  C        -2.7613278949       10.1354904014       27.5245500089
  H        -1.4485834262       11.0858573858       30.7744629273
  C        -1.6776749434       13.9936084918       31.4949252744
  H         7.7769293103       12.3024469293       20.8082132696
  H         7.8564731407       14.0416143351       21.3353569071
  C         6.4553884629       13.6912718345       19.8387181826
  C         3.3538492563        7.5716535081       16.0320815073
  H         2.4732538562       11.1797421807       28.8838788583
  H         1.6004591025       11.0875387643       30.4213583820
  C         3.0649482842        9.5420185961       30.1302567356
  H        -2.3745444038       10.5546079513       26.6157578776
  H        -3.0386846050       10.9807872377       28.1837530239
  C        -4.0568600043        9.3814595178       27.2298836945
  C        -1.5958140638       15.4173085348       31.7418559119
  C        -1.9786012338       13.1471754009       32.6896845039
  H         5.5538397843       13.1594794767       19.5661504922
  H         6.1057431089       14.6713949524       19.9323690393
  C         7.4154727765       13.8246696256       18.5996462350
  H         3.0945662892        6.4799105812       15.9595874488
  C         3.6651905692        7.9433599651       14.7342058224
  H         3.5415824369        8.9788859941       29.4148686614
  H         2.5907601334        8.8900792623       30.8971304052
  C         4.2179086371       10.3388231904       30.9130034817
  H        -3.8410768101        8.4093885379       26.6866438755
  H        -4.4726246389        9.0835148611       28.2211786052
  C        -5.1417452484       10.2236266875       26.5620151664
  N        -1.2950019464       16.3122356358       30.7595759450
  C        -1.9532276751       15.9716639215       32.9729699598
  C        -2.2874489084       13.7344111324       33.9074894889
  H        -2.0903123646       12.0183769005       32.6314104636
  H         6.7677751449       14.0072521821       17.7845584953
  H         8.0321639679       14.7195397639       18.7322434675
  H         7.9092526003       12.9370994575       18.5165170409
  S         4.1418811880        9.5355865018       14.2302176343
  C         3.7345872984        6.9860302174       13.7346183481
  H         4.4486297252       11.1985796431       30.2992969909
  H         3.9533612168       10.7051979412       31.9534054291
  C         5.4975463819        9.4876799045       30.9405758635
  H        -4.7020534383       11.1509307192       26.0699105277
  H        -5.6923794524       10.6596430098       27.3799549013
  C        -6.3560863675        9.4885246090       25.9572462833
  S        -1.3756064581       17.8474072244       31.4354930631
  N        -1.8320224513       17.4480820555       32.9450528863
  C        -2.2970682614       15.2199969439       34.1007821422
  H        -2.6046884066       13.1366742685       34.7766276841
  C         4.2979851846        8.7924244467       12.6010858749
  N         4.1912414993        7.5136336418       12.5474487836
  O         3.6674551406        5.7441592208       13.9542226487
  H         6.1607562627        9.9471848832       31.6223205848
  H         5.8026433615        9.4075935371       30.0413795410
  C         5.3444360235        8.0784747642       31.6112538636
  H        -6.1467798299        9.0352022653       24.9036050516
  H        -6.7894841094        8.7230978638       26.6435648867
  C        -7.3353786070       10.5017631985       25.3753883140
  C        -2.5471583930       15.9265475356       35.3282036101
  S         4.6490927622        9.7411939116       11.0866073386
  C         4.2472780805        6.6825404852       11.3248397488
  H         5.8465341966        8.3874747627       32.5189591124
  H         4.3563667283        7.8487729588       31.7720654387
  C         6.3596253118        7.0916256315       31.1061077632
  H        -6.8333447599       10.8062408591       24.4301873050
  H        -7.3033411668       11.4151963421       26.1514121603
  C        -8.6887828232        9.8837386516       25.1005912895
  H        -2.3711772333       16.9508231777       35.2892271812
  C        -3.2608589403       15.4778415566       36.4187631335
  H         5.0298861788        7.1666639852       10.6826239592
  H         4.4533035590        5.6126733755       11.5677280402
  C         2.8705931342        6.5803595461       10.7049997942
  H         7.2223201500        7.6856876483       31.1164023347
  H         5.9764052379        6.8580469811       30.0921824677
  C         6.5120095793        5.8246655193       31.9541016273
  H        -9.1438562734       10.4284315487       24.1440116352
  H        -8.5781832229        8.8414383143       24.8216963239
  C        -9.6501526912       10.0148432183       26.2380010345
  S        -4.0570816140       13.9169954314       36.6849278353
  C        -3.3428156407       16.3973333013       37.5753484273
  H         2.6510029998        7.5706858219       10.4269924484
  H         3.1545323138        5.8541650291        9.9590007540
  H         2.3223307427        6.1696956294       11.5206492870
  H         7.1096060131        5.1874976414       31.2986407638
  H         5.5592041392        5.4340093506       32.2444478560
  H         7.0783384514        5.9130818723       32.9219181179
  H        -9.8036221520        9.1064834663       26.8360571992
  H       -10.6718170980       10.1638687499       25.7852213792
  H        -9.4045866228       10.9057767456       26.9155950121
  C        -4.3544531641       14.5436308670       38.3354229252
  N        -4.0410756482       15.7963935372       38.5733368660
  O        -2.8833666017       17.5848732576       37.5790462876
  S        -5.4650301242       13.6531478931       39.3529723494
  C        -4.3132584828       16.5056211214       39.8126780191
  H        -4.2237543015       17.6536906766       39.6455411965
  H        -5.4331497353       16.2194766276       40.0435717862
  C        -3.1775238903       16.2529599946       40.7350463751
  H        -2.8013395584       15.3796951613       40.4134540570
  H        -2.5344807867       17.0182751944       40.5492235926
  H        -3.6369050208       16.1659065231       41.7154894910
