352
 i =    61800, time =    61800.000, E =        24.9703296731
  H        10.2929336745        4.7590108737       31.7007492809
  C        10.4282528224        5.7756908787       32.0930610013
  H         9.4310099396        5.9897221184       32.2827774336
  C        10.8531972569        6.8465563311       31.0982934857
  C        11.3268297936        5.5372453255       33.3620370167
  C        11.3332141639        6.2521567247       29.7325266711
  H         9.9945499800        7.4826874813       31.0054327656
  H        11.6577843310        7.5135726887       31.4636275982
  H        10.9058016006        5.9717682313       34.2941294975
  H        11.5168391880        4.4980157849       33.5335218304
  H        12.3154992580        6.0429005641       33.3134232475
  C        10.0377741131        5.9870305666       28.9039224320
  H        11.9519785620        5.3735639000       29.6817579306
  H        11.8440968145        6.9916481873       29.1742027059
  C        10.3557505054        5.7972619286       27.3774766788
  H         9.4336748455        5.2220580431       29.3669277191
  H         9.3707314434        6.8079196789       29.0343083317
  C         9.3042940633        4.9406187456       26.5873374737
  H        11.2596796933        5.2759286470       27.2992318758
  H        10.4952672478        6.7727862650       26.8756617026
  C         8.1300976103        5.8580036353       26.1495216808
  H         9.8200901514        4.6100948361       25.7219729604
  H         8.9959669801        4.0405474932       27.1159693332
  C         7.1439474707        5.0375338236       25.2094076479
  H         7.7364321638        6.4143868580       27.0334123601
  H         8.5402741657        6.5415414764       25.4546419511
  C         6.8820038893        3.6765842072       25.8013002711
  C         7.7872839320        4.3571690873       24.0166944397
  C         6.0671873651        5.8960858607       24.6319388965
  C         7.1457710616        2.5898765547       25.0699170657
  C         6.3418372121        3.2976917852       27.0777055477
  C         7.7518882793        3.0123804295       23.8944251960
  C         8.4778223982        5.0478471806       22.9660182996
  H         5.4896073341        5.3418619780       23.8439695593
  H         6.5547595852        6.7446054744       24.0185794351
  C         5.0029693046        6.4088519934       25.6896353265
  S         6.6906617592        1.0772912150       25.7595915993
  C         5.9998041195        1.9323118963       27.1179543479
  H         6.1668953245        4.0330789174       27.8383594452
  C         8.1637250774        2.4161836904       22.7221575885
  H         8.6216406844        6.1012995560       22.9105527699
  C         8.8905862417        4.4518520424       21.8087960029
  H         4.8049066542        5.8560090631       26.6187214511
  H         5.2580709312        7.3723933414       26.0767670957
  C         3.6191408828        6.6752441647       24.9723660660
  C         5.4636325851        1.2825866371       28.3954211650
  C         8.7600785878        3.1250849772       21.6758549370
  H         8.0119869278        1.3966773605       22.6217699047
  C         9.3699525260        4.8450709979       20.5962557521
  H         3.3115683222        5.8343419079       24.3623358291
  H         3.6459092257        7.3948636560       24.1745353844
  C         2.3945069316        7.1218182333       25.7843247616
  C         5.4377226356       -0.0173793526       28.7781205256
  C         5.0286685120        2.2784711779       29.4483648757
  C         9.1449437966        2.4119054078       20.4374366421
  C         9.5202215530        3.7559416000       19.7326524700
  S         9.6897444576        6.3248219596       19.8963232719
  H         1.8481101149        7.8009131035       25.1730070644
  H         2.6767054871        7.6677651660       26.6448212689
  C         1.5907050837        5.8758712997       26.0860619076
  N         5.7437959328       -1.0199621811       27.8603751038
  C         5.2646775117       -0.3844644215       30.0489624138
  C         4.7761636471        1.8773189960       30.7317413493
  H         4.9952323368        3.3174407750       29.2712166378
  C         7.8748838247        1.6570312787       19.9418336095
  C        10.3522123172        1.5465434034       20.6999526759
  C         9.7811886342        4.1892606662       18.4284597920
  C         9.8600422093        5.5287004853       18.3330664380
  H         0.8396697197        5.7643166442       25.2938544686
  H         2.2800830301        5.0232461138       26.0585764441
  C         0.8150068017        5.9813987268       27.3537989428
  S         5.7937046052       -2.4222892684       28.6986671535
  N         5.4290495312       -1.7706086851       30.1762702804
  C         4.9459694582        0.4633130916       31.1399381210
  H         4.5009803341        2.6064714431       31.4684589003
  H         7.7296364781        0.7151651450       20.5286144037
  H         8.0854779925        1.1108355405       18.9508934111
  C         6.5209394449        2.4011583216       19.9063127407
  H        10.5868694788        0.9446832628       19.8133649916
  H        10.2223891465        0.8148113730       21.4709425009
  C        11.5959596783        2.4005417665       20.9222054937
  H         9.8039785696        3.4837761823       17.6325268267
  C        10.2195236416        6.3205770879       17.0361636777
  H         0.2682646775        5.0763003773       27.4480050861
  H         0.1775263797        6.8883311490       27.3950155944
  C         1.7310354588        5.9418855647       28.5579256429
  C         4.7845068080       -0.0938052414       32.4482858584
  H         6.6538117446        3.3118790527       19.4085756490
  H         6.2036872233        2.8451206877       20.9090139050
  C         5.4486480228        1.3958743859       19.4289157917
  H        11.4132873934        3.1616896604       21.5973517984
  H        11.8317878883        3.0617595780       20.1106334447
  C        12.8654834267        1.7070833077       21.3797919863
  C        10.2719777230        7.7596406836       16.8951157093
  C        10.2392144984        5.5974567207       15.7511692544
  H         2.4132042515        5.1119457020       28.3186897276
  H         2.4144261236        6.7640595273       28.4495461505
  C         1.1002663211        5.9911485391       29.9462656277
  H         5.0849884981       -1.1723524288       32.5289061156
  C         4.5725068205        0.3604046122       33.7097145093
  H         5.2982960178        0.5539836980       20.1692691766
  H         6.0275471100        0.9049057938       18.6079993343
  C         4.2031877181        2.0647472008       18.8206732121
  H        12.5139479551        1.0964968875       22.2067171024
  H        13.1646784258        1.0094149788       20.5870741330
  C        14.0320385599        2.5614723088       21.7419880392
  N        10.0384170394        8.7036494412       17.9017750328
  C        10.4213995222        8.3663375418       15.6307089800
  C        10.4946814723        6.1789614885       14.5856119518
  H        10.1381870290        4.4747549951       15.7947287683
  H         0.5613713535        6.9176693821       30.1987654393
  H         0.4232498019        5.1826864796       30.0810042023
  H         1.9961337885        5.8784915593       30.6532898507
  S         4.1749144555        1.9775749261       34.1815623855
  C         4.5980853416       -0.6323376661       34.8824287277
  H         3.7406792955        2.7623967007       19.5221886719
  H         4.4394859129        2.5766263713       17.9189908180
  C         3.0313013085        1.1103834482       18.5244774598
  H        13.7369474167        3.3114546812       22.4686100975
  H        14.3013327975        3.0212864681       20.8445734071
  C        15.1903936246        1.7839945289       22.3969478616
  S        10.0660122222       10.1659976758       17.2761265646
  N        10.5402881785        9.7229681505       15.7234413166
  C        10.6337788095        7.6403107345       14.4411587223
  H        10.4952097065        5.5327840417       13.7163360168
  C         4.0065650154        1.2488631573       35.8541889277
  N         4.1437037052       -0.0780528771       35.9624037428
  O         4.6890412246       -1.8508655178       34.7241258882
  H         2.1613201800        1.7664748931       18.2642407321
  H         2.9334319143        0.6621793434       19.5006309840
  C         3.2480322654        0.0632244615       17.4834438949
  H        14.9888478808        0.8490645572       22.8924357234
  H        15.9694042458        1.6509618206       21.6396618915
  C        15.9717191782        2.6887634671       23.4045851880
  C        10.8471449513        8.3926702384       13.2211059674
  S         3.6232742382        2.2304374804       37.3154472237
  C         3.9788375638       -0.8463078372       37.2599885082
  H         3.7833600293        0.6479759886       16.6629535494
  H         3.8898995480       -0.6667632649       17.9682187805
  C         1.9516537429       -0.6294529729       17.1257227339
  H        15.6566192153        2.7023289579       24.4518523100
  H        16.0864875732        3.7374423612       23.1804259666
  C        17.3966326593        2.1738247035       23.5041487729
  H        10.7767248084        9.4325038228       13.4125338980
  C        11.4384237459        7.9389042291       12.0566366707
  H         3.0897796132       -0.5624065911       37.8182197086
  H         3.9012185022       -1.9506760228       37.0954445579
  C         5.2229343220       -0.8098535927       38.1673351877
  H         1.9812595590       -1.3367783028       16.3256770833
  H         1.2354865009        0.1133345162       16.8166852201
  C         1.3783183162       -1.3979918201       18.3893768939
  H        17.9189512938        2.4168235138       24.4695949119
  H        17.5781415673        1.1275434805       23.4386046439
  C        18.2252858713        2.6268012732       22.3391022536
  S        11.9596651514        6.3385343119       11.6549532848
  C        11.6786660950        8.9721156526       11.0348417543
  H         5.5509730505       -1.8231858201       38.4896909629
  H         5.9114022592       -0.1131734458       37.7423302514
  H         5.0704098110       -0.2975854897       39.0772699060
  H         0.4435689978       -1.8397052789       18.2481385693
  H         1.2157320476       -0.7362973762       19.2546118305
  H         2.0647143087       -2.2308656025       18.6710450308
  H        18.2172034851        1.8473578221       21.5480031377
  H        19.2777378625        2.8049168542       22.6177764176
  H        17.9391455179        3.6083518815       21.8531971860
  C        12.3906592410        7.0035910825       10.0744264139
  N        12.2473869865        8.3746711781        9.9896712407
  O        11.5308861392       10.2087126728       11.1416064857
  S        13.2752475864        6.2733964462        8.7624776578
  C        12.4871523433        9.1898244923        8.7711126348
  H        12.5838641904       10.1575839281        9.1152370617
  H        13.3044958426        8.9438284736        8.1350983213
  C        11.2551899742        9.2919727847        7.8831702667
  H        11.2685015228        9.0178885466        6.8628118988
  H        10.3288023335        8.9622873033        8.2749888207
  H        11.1067608762       10.3843225885        7.6760727569
  H        -3.5258279598       13.2984375473       16.6528979911
  C        -2.6470231175       13.8805068673       16.6530356016
  H        -1.8805056422       13.1330772137       17.0792728250
  C        -2.7743438407       14.8087280169       17.8064158620
  C        -2.1456556197       14.5003078769       15.4016181998
  C        -3.2056540425       14.2292284700       19.1671312710
  H        -1.8217087758       15.3112971022       17.9129335251
  H        -3.5308135457       15.5758264685       17.6186058020
  H        -2.8151031019       15.2717080579       15.0852978241
  H        -1.2042865095       15.0656134756       15.5771222543
  H        -2.0262321596       13.7385238234       14.6872910837
  C        -2.1098176871       13.7342484953       20.0075038347
  H        -3.7531847949       13.2877666502       18.9665777270
  H        -3.7393316855       14.9270908274       19.6971265825
  C        -2.4799030575       13.9634330218       21.4816467710
  H        -2.0490046025       12.6823267786       19.7530280892
  H        -1.0893710172       14.0703364767       19.6844038532
  C        -1.5600959010       13.2589804744       22.3807821757
  H        -3.4916234526       13.4634950720       21.6218374530
  H        -2.5429593341       15.0012376005       21.8411624273
  C        -0.3296407810       14.1390453330       22.6822859206
  H        -2.0727195274       12.9204542726       23.2701428974
  H        -1.2969014965       12.3565261020       21.8348439106
  C         0.7932559581       13.3529316740       23.4365608777
  H         0.0953031395       14.4489336228       21.6643241679
  H        -0.6735205675       15.0182113602       23.2022502362
  C         1.1652027740       11.9555493267       22.7409484060
  C         0.4416678370       12.6458684896       24.7161604944
  C         2.0147231262       14.2808843786       23.5000549746
  C         0.9845436203       10.9206636343       23.6243582167
  C         1.6667093375       11.5750515865       21.5125741057
  C         0.5514359689       11.3329164148       24.8959792726
  C         0.0557473922       13.2932273278       25.9172362695
  H         2.2769931179       14.7396750466       22.5467218555
  H         1.7315847182       15.1185312982       24.1651798396
  C         3.2553405224       13.6729140110       24.0887965608
  S         1.4891829525        9.4434590320       22.9186252412
  C         1.9333568027       10.2253056905       21.4635168749
  H         1.8003068725       12.3345474824       20.7826946686
  C         0.2839194025       10.6732249707       26.0605391813
  H        -0.0525033045       14.4054661114       25.9837532424
  C        -0.2982111994       12.6390521184       27.0715648185
  H         3.5497979056       12.7208070337       23.7342817763
  H         3.0594374103       13.6155294870       25.1541645475
  C         4.4775694486       14.5854750250       23.9216853674
  C         2.5451419462        9.5535968270       20.2463296656
  C        -0.1312439227       11.3076171626       27.2125248479
  H         0.3768516306        9.5756703407       26.1603290774
  C        -0.7737848103       13.0109625210       28.2914660011
  H         5.1628093666       14.0912085789       24.5974604186
  H         4.3895132730       15.5167266066       24.3262447788
  C         5.0661519856       14.6971676800       22.5432869715
  C         2.6139035966        8.1712280550       19.9512944351
  C         3.0889311846       10.3961556781       19.1475597309
  C        -0.5704011707       10.6114647894       28.4469063134
  C        -0.8489828083       11.9295058130       29.1371018168
  S        -1.2016977652       14.4503307793       29.0342118825
  H         5.8349245555       15.4142551410       22.7022288522
  H         4.3819534337       15.2409753414       21.8606131349
  C         5.4481663987       13.2840511664       21.9343582732
  N         2.2676473569        7.1371464320       20.9035398962
  C         2.8623189351        7.6412732494       18.7164708899
  C         3.4453125380        9.8269527760       17.9253640140
  H         3.0468108978       11.4147915879       19.2864816490
  C         0.4995762289        9.7352433588       29.1509296452
  C        -1.7855730737        9.7519693878       28.1733639569
  C        -1.2751467752       12.2350107030       30.4139014563
  C        -1.4801509660       13.6090352485       30.5210006915
  H         5.8577066992       12.6778476101       22.7282788761
  H         4.5178594817       12.6802446347       21.6901550205
  C         6.2996427099       13.3549356767       20.6903508425
  S         2.2637107874        5.7426727073       20.1428380170
  N         2.8297993218        6.2292196574       18.6929133143
  C         3.2340013954        8.3714611144       17.5868189484
  H         3.6952334384       10.5808736024       17.0915630075
  H         0.7483656196        8.7915730261       28.6736748251
  H         0.1230029744        9.3784694712       30.0803454815
  C         1.7919941554       10.4373037706       29.4393606526
  H        -1.5803678722        9.0672667049       27.4386579747
  H        -2.0222343170        9.1681207960       29.0672562854
  C        -3.0799885830       10.4536452245       27.6014092896
  H        -1.5049028826       11.3916009037       31.0946366014
  C        -1.7465135922       14.2811690206       31.8327844269
  H         7.0515496950       12.5605024014       20.7227464933
  H         6.9116749086       14.2212887483       20.6146558475
  C         5.6547269142       13.0186353100       19.3749127984
  C         3.5650782904        7.7054928826       16.3484550705
  H         2.2326454312       10.8412022705       28.4562953923
  H         1.5077229311       11.2963352471       30.0698352113
  C         2.8159074771        9.5369349729       30.1990341569
  H        -2.9116450208       10.8087842895       26.6581186936
  H        -3.3413170817       11.3039744978       28.2483301536
  C        -4.2964865023        9.5641977774       27.5481482353
  C        -1.8907042225       15.6537643845       32.0679793172
  C        -1.8857637681       13.4295762544       33.0535952545
  H         5.6541683662       11.9642339936       19.3427657500
  H         4.5944910730       13.4908436545       19.4102326447
  C         6.2058218219       13.5478876600       18.0670881677
  H         3.5267446373        6.6128483258       16.4268580268
  C         3.7543870038        8.0858821576       15.0784209719
  H         2.8975976047        8.5958950869       29.6277430256
  H         2.5885070506        9.2819920701       31.2550040758
  C         4.1550134064       10.2987984408       30.1407082409
  H        -4.0297404097        8.7666411416       26.9139537778
  H        -4.5842018669        9.0233583216       28.4927434252
  C        -5.5265651510       10.3827784718       27.0429864359
  N        -1.7849072700       16.6043225933       31.0429702938
  C        -2.1626333090       16.2264140546       33.3017593764
  C        -2.0641004715       13.9851260995       34.2585165108
  H        -1.7955551655       12.4180615030       33.0055228525
  H         5.5372919868       13.4174556388       17.1965239859
  H         6.4236376513       14.6175032440       18.1426592393
  H         7.1293672074       13.0189916097       17.8557666382
  S         3.8663072259        9.7320921406       14.4638224200
  C         3.7206139268        7.0504527955       14.0057601315
  H         4.1591608838       10.9635105016       29.2363340259
  H         4.3714749253       11.0156060091       30.9627334335
  C         5.3121587237        9.2570048786       29.9671944304
  H        -5.3155089000       11.2948099640       26.4361335622
  H        -6.0793666095       10.7702751491       27.8807604353
  C        -6.4069651845        9.6187450449       26.1596641421
  S        -2.0326931540       18.0692064968       31.6727656382
  N        -2.3138104638       17.5830980759       33.2063313584
  C        -2.3554579246       15.4632779999       34.4990401935
  H        -2.2012233838       13.3047873573       35.1555054569
  C         3.9618171474        9.0176414291       12.8409892218
  N         3.7970411404        7.6824076396       12.8276588216
  O         3.5565844479        5.7778864071       14.1593931790
  H         6.2388760235        9.8423482372       29.8179155746
  H         5.1947585669        8.6839178474       29.0293712671
  C         5.4559512310        8.2514184144       31.1334587904
  H        -5.8385889255        9.2085281783       25.3663910135
  H        -6.7509987922        8.7070559263       26.6680232803
  C        -7.5315957268       10.4221495516       25.3945606164
  C        -2.6800503029       16.2042947869       35.6641066503
  S         4.4067255975        9.7811786020       11.4328921213
  C         3.7977236233        6.7877013576       11.6748253651
  H         5.7133923847        8.7589500450       32.0405099130
  H         4.4528939508        7.8178314740       31.2048688290
  C         6.5507543267        7.1636939808       30.8938468576
  H        -7.4982705126       10.5923619172       24.3031104593
  H        -7.6147743112       11.4284112088       25.7806061699
  C        -8.9205943157        9.7911627055       25.5980167598
  H        -2.1218280922       17.1305741435       35.6851945062
  C        -3.2503643393       15.7294219058       36.8280503255
  H         4.0792117677        7.2346742320       10.7780423008
  H         4.5644551324        6.0598765782       11.7200702550
  C         2.4687896436        6.1894385451       11.2581415463
  H         7.2764005258        7.0579026597       31.7252075938
  H         7.1901613693        7.4280549736       29.9956471152
  C         5.8851316060        5.7903524076       30.6538001128
  H        -9.4578979277       10.2476735737       24.7970214877
  H        -8.8423240430        8.6673084670       25.4760712315
  C        -9.5055542332        9.9555855741       27.0159604858
  S        -3.9296801278       14.1794624118       37.1005794769
  C        -3.5323171157       16.8182397555       37.8446597396
  H         1.6978679516        6.8837405658       11.0737494240
  H         2.4508030898        5.6276756719       10.2879318232
  H         1.9321287235        5.5736242702       12.0121566921
  H         5.6169875156        5.0883585869       31.4856563569
  H         6.8046948966        5.4323444365       30.2058542894
  H         5.1200215589        5.8606567618       29.8503614506
  H       -10.4369619461        9.3443239214       27.1284546413
  H        -9.4891194847       11.0208309808       27.3313619484
  H        -8.9344515264        9.4734540796       27.8164854270
  C        -4.2280366100       14.8163859413       38.7335070023
  N        -4.1102719008       16.1506959589       38.8761452824
  O        -3.1411308087       17.9568473982       37.8294272163
  S        -5.0055890079       13.9671738003       40.0921013385
  C        -4.4511879546       16.9745814349       39.9825825499
  H        -4.7140953796       17.9117261856       39.5653348417
  H        -5.2828356450       16.5706264188       40.5120937727
  C        -3.2935179117       17.1671744792       40.9935930113
  H        -2.8870193926       18.1508048741       40.7853014698
  H        -3.6480248441       17.2409978638       41.9915394909
  H        -2.6413417018       16.3188166669       40.9010063764
