352
 i =    87200, time =    87200.000, E =        25.4902839823
  H        10.6901488359        6.7207954787       31.6840475807
  C        11.6700714827        6.4586025442       32.0666262325
  H        12.2041017022        7.3674491101       32.2899639407
  C        12.4207962739        5.7741320903       30.8923476250
  C        11.5680739032        5.6504053374       33.3172657120
  C        11.5501001624        4.7378307650       30.1452397910
  H        12.6671153153        6.5458970408       30.1797009458
  H        13.3000057917        5.2467671337       31.2798620908
  H        11.2119281548        4.6210150045       33.1015441089
  H        12.4817783819        5.3524972253       33.7975868042
  H        10.8231611282        5.9949249449       34.0984241710
  C        10.3990525906        5.2624306124       29.2157857965
  H        11.0464183617        3.9965914591       30.8168804383
  H        12.3199650488        4.1518794125       29.5711084671
  C        10.8151896568        5.4979900227       27.7930220209
  H         9.6243258171        4.6565548593       29.2283431877
  H         9.8642803222        6.1866693466       29.6233543748
  C         9.8005713620        5.0421151979       26.7512126132
  H        11.6213028416        4.9334941920       27.5561223551
  H        11.0769510806        6.5800251719       27.7582940806
  C         8.6815287446        5.9276950254       26.3134138197
  H        10.5628342352        4.7162830835       25.9395889524
  H         9.2947382585        4.1052609418       27.0595389114
  C         7.5711273901        5.1775460529       25.5850137014
  H         8.1549822414        6.2540325062       27.1756086920
  H         8.9938032606        6.8114086988       25.8103174314
  C         6.9967183052        3.8556933600       26.2106664655
  C         7.9539481634        4.4402727568       24.3847990392
  C         6.3178995850        6.0410652432       25.1896655074
  C         7.2409813126        2.7450094189       25.4191068240
  C         6.4245119062        3.5286490044       27.4459258081
  C         7.8720904799        3.1108246074       24.2932944031
  C         8.5581841695        5.0766831757       23.3084203648
  H         5.7851583638        5.4449183167       24.4533803488
  H         6.7450531341        7.0150380355       24.6907799679
  C         5.3321056271        6.3678983413       26.2987058340
  S         6.6735307301        1.3001440296       26.2201859028
  C         6.2434891867        2.2105123879       27.6420553983
  H         6.2166493265        4.3262537777       28.1068281757
  C         8.2154922243        2.5364706049       23.0929634901
  H         8.6488294933        6.1699295385       23.4909693930
  C         8.8816914463        4.4515925027       22.1461979001
  H         5.6385775906        6.1638533111       27.2759981675
  H         5.2879324600        7.4360399666       26.2955685526
  C         3.8677093903        5.9814796396       25.9455649466
  C         5.9103587714        1.5086716572       28.9385273104
  C         8.6913038824        3.1190761939       21.9408105555
  H         8.0006312077        1.4583912288       23.0240801048
  C         9.2779346500        4.8064711755       20.8653926060
  H         3.7683476712        4.9073734934       25.6098859277
  H         3.6884716193        6.7172612733       25.1287320599
  C         2.8565653892        6.2149005917       26.9988117575
  C         6.0289199696        0.0686570854       29.1595566434
  C         5.2629667682        2.2639478066       30.0864537997
  C         9.0541073888        2.3323136556       20.7306027965
  C         9.3236132413        3.7111236334       20.0236568935
  S         9.5025793846        6.3425216111       20.1549420998
  H         1.9364547491        6.1588190142       26.4038564761
  H         2.8992045820        7.2085730119       27.3753176276
  C         2.6775562693        5.2013655965       28.1081553629
  N         6.4081516343       -0.9008526121       28.2356393465
  C         5.7771156468       -0.5204925714       30.3964352387
  C         5.0497488776        1.6476094732       31.3353369056
  H         5.1499046542        3.3715530006       30.0831676117
  C         7.9485131937        1.6397705316       20.0599936440
  C        10.3504166009        1.4944691909       20.8433423943
  C         9.5819696948        4.1707096800       18.7760794486
  C         9.7084801770        5.5475064853       18.6481464095
  H         2.6545223400        4.1508163432       27.6523353142
  H         3.5155654425        5.3213074659       28.7070116939
  C         1.3157838360        5.3612293794       28.8024048091
  S         6.5397147859       -2.3499422096       28.9416194049
  N         6.0238072522       -1.9313577791       30.4076500560
  C         5.3117392627        0.1723709662       31.5423883473
  H         4.6756714405        2.2620402100       32.1226385886
  H         7.6937847803        0.6871841258       20.4760591190
  H         8.3014343099        1.4120933932       19.0381091625
  C         6.5997564841        2.3445702274       20.0105804718
  H        10.5268145057        0.9637620989       19.9521915771
  H        10.1011626007        0.8087454494       21.6034590608
  C        11.5714919665        2.3072901729       21.2708517179
  H         9.5374006924        3.4347453121       17.9920925680
  C        10.0035968977        6.4318237557       17.3799380911
  H         0.7690659795        4.3496309197       28.7850661662
  H         0.5884025159        5.9383654421       28.2327249823
  C         1.3373541260        5.9015108220       30.2372117369
  C         5.2826916053       -0.4405625493       32.8088293748
  H         6.8192919823        3.1307564709       19.3102980251
  H         6.2530095450        2.6937079086       20.9613609009
  C         5.4934881690        1.4786512474       19.3315996283
  H        11.3039116535        2.8989936526       22.1599568484
  H        11.7880935579        3.0195545177       20.5136766678
  C        12.7754499259        1.5345128666       21.6644652025
  C        10.0136421023        7.8270328130       17.2857288341
  C        10.4024605669        5.7216211421       16.1206412792
  H         1.9828105874        6.7173649604       30.2679530235
  H         0.3238423857        6.2966322903       30.5745880079
  C         1.8118146828        4.8297956851       31.2190434096
  H         5.4457176836       -1.5337934408       32.7801508133
  C         5.0058464834       -0.0034591105       34.0960986265
  H         5.0167882481        0.8369479856       20.0347583375
  H         5.9202519082        0.7129472212       18.6203029601
  C         4.4677795680        2.3575341904       18.5868328392
  H        12.5358982692        0.6363849546       22.2750496910
  H        13.2834891427        1.1758889766       20.8048068465
  C        13.7510688654        2.5282610109       22.3174172050
  N         9.5171200389        8.7203508839       18.2752817307
  C        10.3308824441        8.5511588210       16.1324331164
  C        10.6115368357        6.4887133016       14.9908023425
  H        10.4644764155        4.6201700139       16.1762998067
  H         2.2659649683        5.2848454253       32.0442813153
  H         0.9630749511        4.1711354520       31.5175849053
  H         2.6704786247        4.2723565298       30.8074961963
  S         4.6617881137        1.5742693734       34.5667708758
  C         5.0652567444       -0.9959389594       35.1853202961
  H         4.4354670915        3.3900540240       18.8895092011
  H         4.7820645165        2.3847343696       17.6264719772
  C         3.0085623299        1.8211646618       18.6529721062
  H        13.4213251162        2.8776053225       23.3013115242
  H        13.8038976563        3.4918813522       21.8262847057
  C        15.1737769474        1.9195272843       22.4280394172
  S         9.5244560360       10.2357643136       17.7491415526
  N        10.2462375902        9.9582898012       16.3526800403
  C        10.7105187794        7.9652658611       14.9379399695
  H        11.0054574052        5.9679474703       14.0733117166
  C         4.6789448129        0.9688380115       36.2194753351
  N         4.8706313532       -0.3546633676       36.3050746711
  O         5.3693570970       -2.1770831990       34.9985661212
  H         2.3690520052        2.5220695640       18.0937888637
  H         2.5707704056        1.7795275027       19.6780109425
  C         2.6752594437        0.5511246540       17.8840941310
  H        15.2215558567        0.8636886506       22.4914948865
  H        15.5725351980        2.1791256083       21.4641442555
  C        15.9871902521        2.4254871203       23.6390798271
  C        11.0270994167        8.7268648661       13.7863093897
  S         3.9967528629        1.7940290474       37.6299989898
  C         4.6204356301       -1.1452020873       37.5603081009
  H         2.2699044292        0.8736995122       16.8934174079
  H         3.6697020450        0.1291678898       17.6773849119
  C         1.6847688014       -0.4293035203       18.5371704895
  H        15.4065826885        2.3822621328       24.6014937534
  H        16.2394862025        3.4725557194       23.5203257759
  C        17.2363327257        1.6325885456       23.8143583148
  H        10.9078056254        9.7529046070       13.8346620197
  C        11.4945324328        8.4079968384       12.5403989805
  H         3.6107451080       -0.8358364320       38.0281599616
  H         4.5905989896       -2.1899747526       37.2826270198
  C         5.8848158493       -1.0141325659       38.4570476025
  H         0.7924279734        0.1627955350       18.7776504871
  H         2.0607021695       -0.8181321614       19.4984041539
  C         1.4152082857       -1.5910108201       17.6495079185
  H        17.7073619655        1.8310568505       24.8009220208
  H        16.9817383893        0.5724559394       23.6929177570
  C        18.1757547558        1.8238849637       22.6198403310
  S        12.0882835474        6.9074274745       11.9392705478
  C        11.3627464663        9.4949555430       11.5209872659
  H         5.5987875250       -0.4286175294       39.2715994645
  H         6.1299708544       -1.9844816968       38.8317205122
  H         6.7641899780       -0.6861494323       37.9930881819
  H         0.9774643868       -2.4525883272       18.2006153286
  H         2.3790943792       -1.8100289468       17.2155662946
  H         0.7066413387       -1.2330832785       16.9023265049
  H        18.2265791540        2.8891539995       22.3060317209
  H        17.8597430747        1.0855771026       21.8671568322
  H        19.1448642896        1.5507636498       22.9559723418
  C        12.2835930918        7.7579620515       10.4584030401
  N        12.0059109203        9.0614500577       10.4061970644
  O        10.8301576909       10.6008909076       11.7580076945
  S        12.8761255179        6.9222914657        9.0042437630
  C        12.0738624125        9.9129560996        9.2119311308
  H        12.0616684709       10.9456275293        9.6591651989
  H        12.9402750555        9.7033133313        8.5786956218
  C        10.8782702098        9.5852126273        8.2572841335
  H         9.9615364563        9.9226500573        8.5437706500
  H        10.9647938803       10.1014089755        7.3045937872
  H        10.8683242808        8.5578116770        7.9846183745
  H        -3.7190242527       14.3211130477       16.3464582073
  C        -3.2049487091       13.3453737776       16.2993945181
  H        -4.0360101547       12.5737364885       16.5186461626
  C        -2.1274303387       13.3440615868       17.3773826021
  C        -2.7036747057       13.0420320514       14.9740008247
  C        -2.6395230492       13.4380139019       18.8325966307
  H        -1.6350287176       12.4072015135       17.2877286636
  H        -1.4175494548       14.1904226228       17.1721506331
  H        -2.2671272740       13.8898036573       14.5062289985
  H        -2.0991739448       12.1127196349       15.0695008709
  H        -3.5503789579       12.8431733408       14.3410983186
  C        -1.4302441169       13.2788841508       19.7924200209
  H        -3.2657539755       12.5909644357       19.0244939798
  H        -3.1294017722       14.3660396224       19.0645551721
  C        -1.9403583740       13.4369372430       21.2306134587
  H        -0.8832414699       12.3133483673       19.6760204826
  H        -0.7516082672       14.1090866845       19.7441955054
  C        -1.1260704560       12.9286002398       22.3609702968
  H        -2.8083926106       12.8346734867       21.2400980856
  H        -2.3940252281       14.4245355141       21.5115833558
  C         0.1512113604       13.7448181218       22.5203390109
  H        -1.7923673301       12.8874647746       23.2319901894
  H        -0.9362617882       11.9000511668       22.0706158078
  C         1.2753956120       13.1111488689       23.4090072726
  H         0.5918348170       13.7919637677       21.5328870646
  H        -0.0289047152       14.7768082275       22.7804915312
  C         1.7818472668       11.8302218879       22.7081100482
  C         0.7656350622       12.3219225499       24.5760366998
  C         2.4432476239       14.1250001182       23.5934855523
  C         1.6916822068       10.7142205246       23.5054043611
  C         2.2762313090       11.5167394569       21.3896737782
  C         0.9689271364       10.9614546312       24.7004091997
  C         0.3068259469       12.9086327969       25.7434948096
  H         2.6806053414       14.3829163343       22.4962441016
  H         2.1777286476       15.0309296878       24.1038973646
  C         3.6405676030       13.4479436096       24.2738137642
  S         2.3207992430        9.3208227775       22.7237697947
  C         2.5243283866       10.1789740805       21.2194235035
  H         2.4188151293       12.2745219371       20.6973518629
  C         0.6461412359       10.2550053631       25.8177253175
  H         0.2620997608       13.9693048786       25.7726070890
  C        -0.0301889765       12.1882519783       26.8858089849
  H         3.9394156525       12.5726309089       23.6784582896
  H         3.3527097334       13.0426843165       25.2823656381
  C         4.9479014786       14.2469637376       24.3324450775
  C         2.8828230468        9.4641338032       19.9546366228
  C         0.0849843689       10.8699616295       26.9894008005
  H         0.7656496254        9.2086705837       25.7522938403
  C        -0.4710607122       12.5073735475       28.1263311452
  H         5.6684244298       13.6922454700       25.0689958660
  H         4.7484338804       15.1841788060       24.8681092489
  C         5.6849469813       14.5117332007       23.0096452672
  C         2.9047145938        8.0592009977       19.7578266675
  C         3.1353876689       10.2782992187       18.7437419677
  C        -0.3618628329       10.0569105065       28.1881921436
  C        -0.6827236828       11.3796258467       28.9269945062
  S        -0.9150296489       13.9424616502       28.8925159562
  H         6.3109980326       15.3214644843       23.2306522392
  H         4.9159413863       14.9138613010       22.2746594450
  C         6.5316920498       13.3517580054       22.4823073225
  N         2.6715260687        7.0613695882       20.7971464088
  C         3.0856138342        7.5089711738       18.4854555761
  C         3.3936135039        9.7147087845       17.4846083054
  H         3.0876696048       11.3787546872       18.8531433222
  C         0.8106877919        9.3396257784       28.8267522459
  C        -1.6514350151        9.0993441850       27.8507701140
  C        -0.8531486125       11.7185866931       30.2671081626
  C        -1.1923136482       13.0399781993       30.4088964900
  H         7.3868615698       13.2776584949       23.0834165756
  H         6.0018993692       12.4143548234       22.5126428930
  C         7.0167872652       13.6413759158       21.0400254198
  S         2.6034558325        5.5857025827       20.0233243588
  N         2.9068108901        6.0882567599       18.4804815733
  C         3.3019669694        8.2472643898       17.3284156177
  H         3.4215766264       10.3032565430       16.6331053511
  H         1.1135264832        8.4845383360       28.2350123292
  H         0.4458246765        8.9951874407       29.8138772187
  C         2.0420239607       10.1429406688       29.3622881821
  H        -1.4465054195        8.6888861049       26.8478448573
  H        -1.6311944939        8.3142786827       28.6109722972
  C        -2.9169773686        9.9190225140       27.7489939651
  H        -0.8424022276       11.0570452479       31.0588588303
  C        -1.3862614300       13.8555377571       31.6944360706
  H         7.6593290532       12.7725492569       20.8115540685
  H         7.7135484120       14.4753710599       20.8985052091
  C         5.9151559390       13.6592030098       19.9104183680
  C         3.3850419923        7.5542130216       16.0394386321
  H         2.5105974015       10.7735755548       28.5781179676
  H         1.9005547090       10.9115143948       30.0791084434
  C         3.0712531203        9.2061733379       30.0087585824
  H        -2.6861223219       10.6050622306       26.9276731638
  H        -3.0730240904       10.5827606566       28.6105599325
  C        -4.1109099650        9.0074589870       27.5152838565
  C        -1.4151272113       15.2630053451       31.7557891198
  C        -1.3895246612       13.0617015120       33.0010499557
  H         5.1055460366       13.0657904846       20.2256421281
  H         5.4687312839       14.6218344501       19.9783745789
  C         6.3257597864       13.2012500974       18.4892004947
  H         3.2347546344        6.4909239867       16.1159005614
  C         3.7076699494        7.9182350740       14.7431335964
  H         3.5281338752        8.4805447266       29.2680100761
  H         2.6089857005        8.6873675357       30.8359059612
  C         4.1780900256       10.0174559730       30.5284122549
  H        -3.9769131292        8.2255031516       26.7749089342
  H        -4.4027694042        8.4826862214       28.4562082731
  C        -5.3128516876        9.9364599056       27.2068662291
  N        -1.3230705253       16.1931075761       30.6978902898
  C        -1.6179062313       15.8770031089       33.0179811508
  C        -1.5474603092       13.6981949376       34.2668425078
  H        -1.3548126603       11.9962456851       32.9004132913
  H         6.9696812708       13.8913159833       17.9691752758
  H         6.7321802498       12.2290076819       18.4738285584
  H         5.4151577378       13.3939949870       17.8160331558
  S         4.0477439594        9.5160913548       14.1980829212
  C         3.7093469657        6.7974488511       13.7994683628
  H         4.6342858409       10.4413856971       29.6018255488
  H         4.0782969162       10.9944128217       31.0648507917
  C         5.1511061177        9.1717057064       31.3970042777
  H        -5.0951977554       10.8999798492       27.6704300707
  H        -6.2481699488        9.5749009606       27.6069878068
  C        -5.5191337211       10.0558376601       25.6623638028
  S        -1.4679575189       17.6871921825       31.4012824655
  N        -1.8230316279       17.2624806640       32.9017507861
  C        -1.7983794639       15.1803187688       34.2719624651
  H        -1.6024413425       13.0097941883       35.1131548300
  C         4.2113371357        8.6746320333       12.5968612261
  N         4.0477752406        7.3537024991       12.5966318852
  O         3.4316989847        5.6122831690       13.9826764227
  H         4.6562570822        8.4671047931       32.0789678140
  H         5.8142102193        9.8664392563       32.0498597192
  C         5.9753242129        8.1736997225       30.5531059559
  H        -4.5087162339       10.1593424836       25.2113144694
  H        -5.9335321910        9.1102243250       25.4061646438
  C        -6.2994460812       11.2366571016       25.0342319504
  C        -2.2953380689       15.9415499278       35.4135889869
  S         4.8028180699        9.3917602663       11.1530726163
  C         4.0383072252        6.4927088769       11.3984869838
  H         5.9207572357        8.6084671698       29.5280766056
  H         7.0430475021        8.2485346578       30.8915643577
  C         5.5576158008        6.7035634186       30.5477213315
  H        -6.1420834553       11.4109498510       23.9676029819
  H        -5.8661097535       12.1809360164       25.3693488849
  C        -7.7480798122       10.9151504100       25.3927886942
  H        -2.2872764670       16.9826531338       35.3099213942
  C        -2.8341300743       15.5255713730       36.6218395308
  H         4.6251169190        6.7984863981       10.5901118417
  H         4.3969840690        5.4544503376       11.6162101769
  C         2.5966443708        6.3473412826       10.8642356897
  H         5.7434545006        6.2676103313       29.5746407181
  H         4.5046932364        6.6550057322       30.8204828415
  C         6.2826645572        5.8294320855       31.6036804783
  H        -7.7432501869       10.2602165964       26.2588680133
  H        -8.1527858727       11.8923723420       25.6754278042
  C        -8.6474760423       10.3519903772       24.2288816570
  S        -3.2154295018       13.9290258474       37.1711976394
  C        -3.0132483826       16.5928443431       37.5976365328
  H         2.2855048571        5.3447950112       10.7345104512
  H         1.8165766285        6.7757209520       11.3999113150
  H         2.6752126784        6.8577865929        9.8595904053
  H         7.2219117522        5.3727791049       31.2351611374
  H         5.6279450473        4.9940697234       31.9714897828
  H         6.5884097160        6.4806969549       32.4271564068
  H        -9.6272897416       10.2360074889       24.6075239581
  H        -8.3018265581        9.3787347285       23.7688462895
  H        -8.8300773479       10.9618467044       23.4287043329
  C        -3.7315233660       14.7123559550       38.6804888028
  N        -3.5905174233       16.0381804033       38.6762053273
  O        -2.9446935970       17.7801212226       37.3101840671
  S        -4.4813358192       13.9759941710       40.0134419822
  C        -3.9785261739       16.9324618831       39.7855144113
  H        -4.2770561152       17.9128293351       39.4233246969
  H        -4.8278662454       16.4863152202       40.2856606413
  C        -2.7307784779       17.1568641031       40.7320303222
  H        -2.8933547630       16.7506119305       41.7514688670
  H        -1.8932166401       16.5898512889       40.3441508190
  H        -2.4133689590       18.2236189092       40.8621428636
