352
 i =    35300, time =    35300.000, E =        24.5433322871
  H        12.0774252344        6.9247032173       32.5662090996
  C        11.5384655182        5.9899812860       32.5153487922
  H        12.2401932126        5.1973156667       32.2988572955
  C        10.4077128639        6.1247047002       31.4690075454
  C        10.9821125416        5.7051734849       33.8787767709
  C        10.9998346568        6.1862497885       30.0363585308
  H         9.7863345701        5.2468917258       31.4234808181
  H         9.7246986004        6.9749144422       31.6235288556
  H        11.6201123680        6.2398904759       34.5931189871
  H         9.9410192825        6.0075427606       33.9529659679
  H        11.1497461432        4.6715445614       34.1664960858
  C         9.9172144528        6.1580334740       28.9641530811
  H        11.7768991134        5.4193361681       29.7952508819
  H        11.6674299526        7.0847293488       29.9370341092
  C        10.4422227601        5.8243650469       27.6089608731
  H         9.0560625665        5.5937873373       29.2550433296
  H         9.6454106083        7.2184345304       28.9668172155
  C         9.4476642297        5.0274795417       26.7495659957
  H        11.3588434359        5.2980947788       27.6234708870
  H        10.5683009950        6.8430743550       27.1981541467
  C         8.3010009182        5.8493415347       26.2219823585
  H        10.0833409080        4.6174026997       25.9859816774
  H         9.0376403672        4.2449337885       27.3850993897
  C         7.2075223628        5.0309216662       25.4466395969
  H         7.9967095485        6.4395262889       27.0853469775
  H         8.7079283593        6.4960526703       25.4670375440
  C         6.8440404230        3.6732043943       26.0968097121
  C         7.7510909839        4.3420101446       24.2008912979
  C         5.8990733330        5.8754957083       25.1781474889
  C         7.1997557411        2.6429057030       25.2903904901
  C         6.1924140050        3.3025611415       27.3245327313
  C         7.8204497618        2.9908780585       24.0981906302
  C         8.1872699481        5.0561464009       23.1110948381
  H         6.1570204367        6.5192478253       24.4041056951
  H         5.6045193195        6.5239533128       26.0154533147
  C         4.6461529287        5.1089341532       24.7407766631
  S         6.8014356722        1.1574439372       26.0181348677
  C         6.0816738323        1.9238718332       27.3999032552
  H         5.8785951104        4.0879471539       28.0351420709
  C         8.3019146282        2.3751173985       22.9477924771
  H         8.1230286013        6.1390532611       23.2125891337
  C         8.6929945916        4.4784817634       21.9824175691
  H         4.8352934281        4.7415197662       23.7500209613
  H         4.6426778144        4.2689898405       25.3576553509
  C         3.3711119954        5.8999518908       24.8235384243
  C         5.7450193878        1.1803755026       28.6509829673
  C         8.7420658441        3.0896736164       21.8216259297
  H         8.3676747187        1.3984318516       22.7241983112
  C         9.1100180498        4.8579175335       20.7666006184
  H         2.6527855033        5.2751055975       24.2489827588
  H         3.2965225876        6.7996700908       24.1245162605
  C         2.8900686181        6.1582148403       26.2061228563
  C         5.9462774744       -0.2136166211       28.8653277776
  C         5.2880576111        1.9788510111       29.8115524300
  C         9.2453441013        2.4472486342       20.5882134455
  C         9.4083626441        3.8345777384       19.8959199099
  S         9.2622373530        6.4271517280       20.0086353646
  H         2.0859606517        6.8583103001       26.1379436296
  H         3.6066607995        6.6742413936       26.8005018814
  C         2.2410468864        4.9086899534       26.8715916422
  N         6.2887132893       -1.1166286272       27.8566220137
  C         5.7002842631       -0.8464560327       30.0698778559
  C         5.0334184508        1.3416167347       30.9800721933
  H         5.1255729927        3.0667268783       29.7575744569
  C         8.1920551111        1.5209481953       19.9458922927
  C        10.5967924008        1.8004942265       20.6921717837
  C         9.7747584050        4.3181935497       18.5846557933
  C         9.7310606712        5.6738968151       18.5102380852
  H         1.7558651023        4.2734870097       26.1478652673
  H         2.9948787367        4.2331321475       27.2833996219
  C         1.1723536052        5.1693451747       27.9211786283
  S         6.4833627244       -2.5803368706       28.5333336216
  N         5.9890896586       -2.2264232995       30.0508323577
  C         5.2881069053       -0.1693918136       31.2308553283
  H         4.7467546944        2.0205160245       31.7780790563
  H         8.2316591777        0.5670251034       20.4420735639
  H         8.4763318011        1.2679482224       18.9986037389
  C         6.7275308148        2.1080891169       19.8642794194
  H        10.8070963456        1.2138760070       19.8066243073
  H        10.5734771641        1.1054951461       21.5425150978
  C        11.8223861588        2.6459257938       20.9335546161
  H         9.9797286650        3.6117767427       17.7970247725
  C        10.1389354696        6.4848832869       17.3205872056
  H         0.6494299060        4.2403869349       28.2270823791
  H         0.3884818362        5.9559863784       27.5632619744
  C         1.7820536553        5.6918193922       29.2193398054
  C         5.1764707652       -0.8031350484       32.4699500569
  H         6.6466079508        3.1162047673       20.3125595103
  H         6.2055955205        1.4522475829       20.5643852386
  C         6.3270220967        1.9951327715       18.3262962370
  H        11.7152895276        3.3397742732       21.7736322648
  H        12.0182136378        3.2548185790       20.0451020422
  C        13.0525278612        1.7966845945       21.1278285410
  C        10.1910805846        7.9136426893       17.2042957959
  C        10.6062685184        5.7642443020       16.1176032347
  H         2.6488196970        6.2648215409       29.0153108668
  H         1.1752215417        6.4138582887       29.6807352036
  C         2.2354422901        4.6119985826       30.1848546882
  H         5.3292822218       -1.9023257437       32.5099636567
  C         4.7608458327       -0.2979932450       33.6612139163
  H         6.4687272477        0.9881009728       17.9428192050
  H         6.9152335555        2.6862924211       17.7415632151
  C         4.8662035685        2.4486942015       18.0752094612
  H        12.9775522243        1.2816228931       22.0448621829
  H        13.1815275693        1.0437283170       20.4142000701
  C        14.2827980656        2.6628999284       21.0750678137
  N         9.9621429721        8.7873719143       18.2868127055
  C        10.5021943863        8.5424220816       16.0439322463
  C        11.0284629199        6.4301412398       14.9952987271
  H        10.7940700805        4.6963639834       16.1904960605
  H         2.8765581920        5.0298366981       30.9107617713
  H         1.3739456839        4.0527402802       30.6083741054
  H         2.8520731082        3.9816183243       29.6056962827
  S         4.5729307783        1.3894995269       34.1205671630
  C         4.5596033776       -1.3049164974       34.7741273815
  H         4.7183634109        3.4886496722       18.3490850869
  H         4.6771188445        2.5074107027       16.9281877633
  C         3.9074257177        1.4080307432       18.7590037524
  H        14.0569670120        3.5564735294       20.4208029817
  H        15.0110289356        2.1210357860       20.4151605342
  C        14.8660115764        2.9614397657       22.4396061204
  S        10.0912745926       10.2953816501       17.6789534285
  N        10.5277832388        9.9989802212       16.1499884857
  C        10.8994412947        7.8848202298       14.8749325029
  H        11.4374092227        5.8084306428       14.2248117559
  C         4.1873130068        0.7281558672       35.6863751776
  N         4.2258031685       -0.6026031282       35.8395174287
  O         4.7125304565       -2.5043768050       34.5922362843
  H         3.1292116862        1.9181722831       19.3874566115
  H         4.4826668870        0.7347460823       19.3976718063
  C         3.1810449283        0.4742159650       17.7919879807
  H        15.6549804354        3.7347799335       22.2828675774
  H        14.0983647455        3.5246167016       23.0812453267
  C        15.3240027582        1.6938731376       23.0694754717
  C        11.2298598760        8.5774235696       13.6778987565
  S         3.8782375173        1.6460351022       37.1151299419
  C         4.2891376493       -1.3490790670       37.1220171115
  H         2.5695310332        1.0180548397       17.0473707370
  H         4.0765686353        0.0093446266       17.3943492657
  C         2.3669677191       -0.6365041282       18.3951414273
  H        15.5766445288        0.9186535213       22.3472442106
  H        14.6413220862        1.3161162719       23.8823670072
  C        16.5739266077        2.1325291455       23.7899580756
  H        11.1489603733        9.6558590457       13.7755587666
  C        11.7718878870        8.2647862623       12.4601756341
  H         3.4944245138       -1.0517928857       37.8353141324
  H         3.9592877268       -2.3588736393       36.9121124775
  C         5.7446348128       -1.2911508701       37.5415504331
  H         1.5379010378       -0.1836228505       18.9081635502
  H         3.0142856608       -1.0286647504       19.1792632414
  C         2.0014279207       -1.6991885846       17.3522697051
  H        16.4370663930        3.1281169162       24.1403851281
  H        16.8490775617        1.4484611560       24.6169338928
  C        17.6736683158        2.1267585446       22.8576316481
  S        12.3923846733        6.7478771114       12.0200615909
  C        11.9861935229        9.3575698966       11.4510910333
  H         5.8587816408       -2.1638308219       38.1920902252
  H         6.4977636652       -1.2480565040       36.7749276327
  H         5.9480252757       -0.4590688790       38.1940098895
  H         1.3885455190       -2.4789792471       17.7674063552
  H         2.9125895424       -2.0874699869       16.8524018429
  H         1.3549566834       -1.3252819243       16.5331060163
  H        18.5511281739        2.4384032169       23.4111255915
  H        17.4910917863        2.7008910653       21.9660274739
  H        17.7728496280        1.0920341642       22.5219186810
  C        12.8121925878        7.5052055068       10.4895487071
  N        12.5596989704        8.7885915376       10.3969030099
  O        11.6822245432       10.5542705814       11.5080386697
  S        13.5237990075        6.6561641550        9.1616218846
  C        12.7818945801        9.5962779156        9.1867494299
  H        12.9266230858       10.6827260540        9.3598758109
  H        13.6992793751        9.2897796304        8.6449584607
  C        11.5445009194        9.4983967738        8.3477284590
  H        10.6264756414        9.5355213562        8.8881752217
  H        11.4349888384       10.3912706812        7.7395048625
  H        11.4218584407        8.6184012956        7.7026237495
  H        -2.5046785198       14.4937751106       15.8912231893
  C        -2.9206134819       13.5530993678       16.1764421781
  H        -3.9735348284       13.8656815241       16.4766428799
  C        -2.0553051235       13.0201287833       17.3129138538
  C        -3.1394135284       12.6807345605       14.9222489199
  C        -2.6495963266       13.2392136055       18.6799505776
  H        -1.7634010243       11.9867501815       17.1209695389
  H        -1.1197074505       13.6119477021       17.2138703676
  H        -2.1760153411       12.2379123275       14.5854389409
  H        -3.9070721941       11.8883858443       15.0425966418
  H        -3.5014466426       13.2949609384       14.1114900830
  C        -1.8162862248       12.7181354517       19.7990335897
  H        -3.6422040915       12.7815444865       18.8413700078
  H        -2.7709097744       14.3447968000       18.7367822900
  C        -2.5667860186       12.6995023544       21.1752643987
  H        -1.4777832181       11.7173916450       19.5766781745
  H        -0.9684829157       13.3427288607       19.9347348230
  C        -1.6766290737       12.0518261872       22.2498100029
  H        -3.5843874109       12.1989739840       21.1352746463
  H        -2.8494831172       13.6975149361       21.4393817673
  C        -0.5441076555       13.0285406634       22.7110705809
  H        -2.2892815736       11.6257499313       23.0367307633
  H        -1.1345038838       11.1923661913       21.8073059939
  C         0.6702523353       12.4202938445       23.4008821181
  H        -0.2152300112       13.5780021352       21.8887496377
  H        -1.0579094678       13.7246529936       23.2963812897
  C         1.0590129838       11.0490950303       22.7974532169
  C         0.2874939468       11.6362523172       24.6478385147
  C         1.9132712359       13.3804550902       23.6084768328
  C         0.9038154658        9.9112811152       23.5566907665
  C         1.6646673509       10.6839351700       21.6127793287
  C         0.4019088556       10.2943694101       24.7317069799
  C        -0.0976687071       12.3991948454       25.8002901842
  H         2.0477948270       13.8833036647       22.6361315269
  H         1.6535672549       14.1797954402       24.3324833940
  C         3.2148988575       12.6963909404       24.1255401679
  S         1.2572475285        8.4673076845       22.7261300088
  C         1.8527077758        9.3683252413       21.4124268853
  H         1.8616733810       11.4170381596       20.9572297414
  C         0.1527791715        9.7726245525       25.9571030172
  H        -0.3170072611       13.4349305441       25.7292008174
  C        -0.3797409263       11.8154988351       26.9723006000
  H         3.7860209341       12.1044988317       23.4339621489
  H         3.0758036468       12.1901533695       25.0853213770
  C         4.2769775548       13.9070070560       24.3480018609
  C         2.4631712412        8.7724721185       20.1770138486
  C        -0.1967373246       10.4681703999       27.1176798362
  H         0.3831913569        8.7630790120       26.1209377672
  C        -0.7768924918       12.2773619904       28.2230857922
  H         4.9099561959       13.5521290475       25.1345052973
  H         3.8542564366       14.7963898934       24.8302765515
  C         5.0365930713       14.0513184437       23.0229583923
  C         2.4818694874        7.3471548944       19.8410758234
  C         2.9893594293        9.7046175252       19.1057331668
  C        -0.5643811318        9.8068440432       28.4721716686
  C        -0.8653314170       11.1981308677       29.1157510267
  S        -1.0596301242       13.7930358391       28.9561795365
  H         5.5441222931       15.0512822971       23.2383299202
  H         4.3459869747       14.2765391904       22.1837495485
  C         6.0569300424       12.9664873994       22.5598034190
  N         2.1828731658        6.3932715825       20.7652680844
  C         2.8505604775        6.9321268492       18.5878263075
  C         3.4571397463        9.2159073874       17.8586370221
  H         2.7570640133       10.7961114374       19.1383045372
  C         0.6593283335        9.2200982400       29.2006606618
  C        -1.7820578091        8.8510390662       28.3882850482
  C        -1.2279793338       11.6127807492       30.4377797795
  C        -1.3242907375       12.9849322961       30.5205310663
  H         6.6218461834       12.6764927553       23.4725756176
  H         5.6457226058       12.0678284637       22.0887820621
  C         7.1425278187       13.4870160214       21.6411123455
  S         2.3530992255        5.0416821951       19.9907047533
  N         2.7565601058        5.5563070558       18.4551034180
  C         3.2614103695        7.7444780187       17.5058113625
  H         3.6756511461        9.9276693490       17.1060291288
  H         1.0744493978        8.4371066501       28.5954811806
  H         0.2216641577        8.7196897617       30.0632785420
  C         1.7260126619       10.2021359000       29.6161741863
  H        -1.3257997483        7.9901947338       27.8214958716
  H        -2.0367449654        8.3746358903       29.3488537596
  C        -3.0033457495        9.3517235125       27.5765868860
  H        -1.4547927865       10.8350647387       31.2347493458
  C        -1.7130643330       13.7886805925       31.7597152652
  H         7.9959265861       13.0345410273       22.0526158782
  H         7.2144352256       14.5654433558       21.7817208085
  C         6.8390386069       13.3355040685       20.0940235468
  C         3.4614712292        7.2640371383       16.2221477301
  H         2.1656436351       10.6551925114       28.7310643912
  H         1.3311069576       10.9291734258       30.3481526695
  C         2.8821201082        9.3727592092       30.2403347256
  H        -2.7809481907        9.2630736890       26.5210849313
  H        -3.1292983650       10.4116042009       27.8016470909
  C        -4.2636349628        8.6950833890       28.0800364905
  C        -1.8278885157       15.1421525541       31.8427227156
  C        -1.9606209530       13.0702965935       33.0096770301
  H         7.7205912546       13.9254942058       19.6910023626
  H         6.9008535020       12.3185126081       19.6816216332
  C         5.6575279705       14.0381168181       19.4294448706
  H         3.2702458673        6.1822079550       16.1218373554
  C         3.8435144125        7.7914012686       14.9929608088
  H         3.5889521544        8.9196172632       29.5620517783
  H         2.4865759703        8.5035686024       30.8209634679
  C         3.6812102326       10.2500520991       31.2325495194
  H        -4.0685595238        7.6752205193       28.5361279497
  H        -4.5457043694        9.2472027049       29.0358801377
  C        -5.3804944961        8.7371436746       27.0667337393
  N        -1.4630845880       16.0161783222       30.8174445868
  C        -2.1826433466       15.8513416226       32.9768943621
  C        -2.2751540779       13.7624378520       34.1653583030
  H        -1.7597916011       12.0045168891       33.0721672470
  H         5.9075075679       14.3674660714       18.4215295145
  H         4.7728325155       13.3926618958       19.5761452460
  H         5.5008752771       14.9307784922       20.0483678981
  S         4.2741531602        9.4651198023       14.6945365956
  C         3.8537236197        6.9267750705       13.7233781690
  H         3.7402768966       11.1447514328       30.7196415259
  H         3.2428813848       10.5037534842       32.1749707022
  C         5.1371664798        9.6653155228       31.4789985528
  H        -5.9355548002        7.8002614244       27.1721098085
  H        -4.9428357069        8.7623650402       26.0922205581
  C        -6.2704736275        9.9754950528       27.0997533632
  S        -1.4234107024       17.5549240379       31.3390516904
  N        -1.9924360003       17.2338078864       32.8211418122
  C        -2.4317979647       15.2412424960       34.1917152424
  H        -2.3736127145       13.0725476652       35.0279776948
  C         4.4867056440        9.0022966355       13.0112396194
  N         4.2386985836        7.6691109518       12.6592862568
  O         3.5288203509        5.7830183064       13.7073512550
  H         5.5991207670       10.2867398695       32.2624937108
  H         5.7696486592        9.9442428117       30.6427436554
  C         5.2160766474        8.2062912773       31.9608271484
  H        -6.9309772903        9.7720340456       27.9274629528
  H        -5.7998537246       10.9006210563       27.4281162159
  C        -6.9870215189       10.2653436425       25.8212345304
  C        -2.5984337281       16.0474892538       35.3398327273
  S         4.9954621378       10.0705986734       11.7572728507
  C         4.2854132185        7.1662157952       11.3019545888
  H         5.6825252407        8.1805396310       32.9604477320
  H         4.2761957079        7.6822054537       32.2570768656
  C         5.9530774576        7.2988409923       31.0191458920
  H        -6.3198500916       10.1185429873       24.9312284887
  H        -7.3878983415       11.2585946896       25.8099933318
  C        -8.2260187096        9.3314843295       25.5328080749
  H        -2.4150273400       17.0849063448       35.1516570046
  C        -3.0997400844       15.7293690222       36.5892521818
  H         5.0125089049        7.7827977118       10.7052391193
  H         4.7491644539        6.2027814068       11.3426340823
  C         2.9144698017        6.8998429314       10.6430155272
  H         6.9042263101        7.7675623585       30.6873699653
  H         5.3105538702        7.2364019095       30.1430225627
  C         6.1287647232        5.9068454304       31.5559147215
  H        -8.1652602417        9.1337520239       24.5238249455
  H        -8.0785231992        8.3685806470       26.0821197184
  C        -9.6430470712        9.9373357164       25.7747208060
  S        -3.9438291922       14.2266092388       37.0728501879
  C        -3.0461792369       16.7545667937       37.6413168152
  H         2.2804579139        7.7913367065       10.5202478987
  H         3.1036306949        6.4653397649        9.6978947760
  H         2.3811699707        6.1696663987       11.2726270707
  H         7.0240047045        5.5240816779       31.1816684109
  H         5.2442013274        5.2805813853       31.3701878204
  H         6.2777096878        5.8537483206       32.6346629911
  H       -10.3284765882        9.9419323124       24.8933386823
  H        -9.4787118979       10.9054677134       26.2025152047
  H       -10.2144995564        9.4330204738       26.5854101297
  C        -4.1921302745       15.0735253561       38.6204128951
  N        -3.7359622985       16.3526350432       38.7222250666
  O        -2.5764212164       17.8188948217       37.4034364574
  S        -5.0281405184       14.2107537534       39.9298902851
  C        -3.8050529856       17.1868625301       39.8962122439
  H        -3.9184608659       18.2738072959       39.5303822642
  H        -4.7470433045       17.0083588252       40.4222369967
  C        -2.6129795480       17.0277004400       40.8166627904
  H        -2.3117149001       18.0272375291       41.1699295613
  H        -2.8723601913       16.4273490310       41.6889625831
  H        -1.6732087959       16.6845312996       40.2935649974
