352
 i =    54400, time =    54400.000, E =        24.9046572610
  H        10.6527335587        4.9210542342       31.8909229074
  C        10.4097454947        5.9454494104       31.8209615258
  H         9.4834271530        5.9108582388       31.2544144704
  C        11.3093794829        6.8529342607       30.9701178170
  C        10.1971713280        6.4665690111       33.2027261688
  C        11.8357907709        6.0372956820       29.8636839245
  H        10.6288424968        7.6570526457       30.5295683083
  H        12.2249486580        7.1889476623       31.5032635288
  H        10.5485858111        5.8231262305       34.0163385982
  H        10.7170205238        7.4138660350       33.3907835768
  H         9.1828805205        6.8261295396       33.3293938411
  C        10.7313709544        5.6256390012       28.8510745527
  H        12.3061471880        5.0765103272       30.2233373362
  H        12.6446977122        6.5947513821       29.3739829054
  C        11.2510425811        5.7795188947       27.4172849502
  H        10.3379427791        4.6517299830       29.1055384988
  H         9.8598890949        6.1995178213       29.0593461403
  C        10.1856633576        5.1963213042       26.4818720414
  H        12.1145112578        5.1076200076       27.3627373956
  H        11.3798880443        6.8136549063       27.0679519680
  C         8.8771639012        5.9901088788       26.3448063708
  H        10.5928953055        5.0329172568       25.4873876801
  H         9.9457776106        4.1871303349       26.7012567542
  C         7.7209742750        5.3147545973       25.5965896133
  H         8.4231321045        6.0722909126       27.3228449996
  H         9.1100474256        6.9947739151       25.9294364604
  C         7.2077847753        4.0135748498       26.3036127448
  C         8.0415243147        4.6155863578       24.3250745258
  C         6.5118584491        6.1931490493       25.4308325659
  C         7.3916275712        2.9030866435       25.4607890665
  C         6.6658153019        3.6108054989       27.5590508692
  C         7.8936267168        3.2952377925       24.2528542012
  C         8.4330980961        5.2466020078       23.1380076941
  H         6.7768935569        7.0979713718       24.8549556170
  H         6.2484962152        6.5879253757       26.3461212974
  C         5.2330961463        5.5869280337       24.8094683946
  S         7.0937264907        1.3716635691       26.2302533064
  C         6.5864420253        2.2415655530       27.6538684887
  H         6.5149517020        4.4024370223       28.2251299100
  C         8.2303188734        2.5813235293       23.0950189238
  H         8.3814282617        6.3342854860       23.0464646722
  C         8.8910968337        4.5997308628       22.0290397846
  H         5.5138980717        5.4064240569       23.8049433691
  H         4.9127545774        4.6304198504       25.2524113948
  C         4.0031801724        6.4383855295       24.6866375562
  C         6.0263223348        1.5332416463       28.8125506792
  C         8.8312410143        3.1948433628       21.9851190553
  H         8.1149972965        1.5138078272       22.9252124931
  C         9.2824701248        4.8823989243       20.7654603254
  H         3.3664042698        6.1076435671       23.8237933518
  H         4.3068720328        7.4656107915       24.3651859627
  C         3.2156806100        6.7101400333       25.9476597499
  C         5.8911281997        0.1153443207       28.9978929394
  C         5.5737911730        2.3369954538       30.0168213424
  C         9.2827803733        2.4428369035       20.8144649064
  C         9.5064025625        3.7391255909       20.0385055263
  S         9.6277576481        6.3402860218       19.9323406900
  H         2.5888751814        7.5980755210       25.8554404525
  H         3.9050389621        6.8964248310       26.7572143968
  C         2.2948989917        5.5651947162       26.4032125726
  N         6.2908484615       -0.9229330464       28.1067090193
  C         5.5836052559       -0.4694584968       30.2382387302
  C         5.2478795923        1.7920174867       31.2360445906
  H         5.5931509053        3.4072910102       29.9095501264
  C         8.1162108315        1.6295763167       20.0795807222
  C        10.5775518150        1.7175938305       21.0239363075
  C         9.8290552309        4.0978415221       18.7792665013
  C         9.8121828176        5.4389649465       18.5078809170
  H         1.4040728529        5.7317289012       25.7699239576
  H         2.6588338999        4.5799961399       26.1306161592
  C         1.6817327748        5.7158752809       27.8483092375
  S         6.0621783438       -2.3851638483       28.7932893523
  N         5.8131355701       -1.8339536454       30.3093194411
  C         5.3444112965        0.2839146719       31.4487715371
  H         4.9827478844        2.5026609263       31.9622512391
  H         7.7465414389        0.7604992122       20.6581340621
  H         8.5263816727        1.0622684146       19.2684025081
  C         7.0143981048        2.5635128889       19.4993856966
  H        10.8522642488        1.2111881766       20.1570172071
  H        10.3612757718        0.9388637264       21.7778813063
  C        11.8017668412        2.4486275505       21.5706850832
  H        10.0058211970        3.3012358625       18.0348286942
  C        10.1368394564        6.2059711912       17.2273174545
  H         1.1997579490        4.6719442769       27.9260253112
  H         0.8824315747        6.4114876239       27.9256778545
  C         2.5914544417        5.8290504418       28.9053528282
  C         5.0635348700       -0.4070751739       32.6326925232
  H         7.5025286155        3.0368082220       18.6604671472
  H         6.7515308043        3.3422186985       20.2228622153
  C         5.7150486290        1.9088954480       19.0228316852
  H        11.5109069305        2.9562071723       22.5131846380
  H        12.0734981271        3.1671435882       20.8713058915
  C        12.8898810251        1.4135925679       21.7456062553
  C        10.3637544759        7.5871801983       17.1625103033
  C        10.1854962827        5.4467572599       16.0115667053
  H         3.3522780641        5.1039128511       28.7799855223
  H         3.1132633153        6.7439178116       28.7752466776
  C         1.9476134343        5.7427226473       30.3152204884
  H         5.3146096813       -1.4047269080       32.6142905263
  C         4.7935729430        0.0043088117       33.9163106077
  H         5.1621199560        1.5333376309       19.8611218504
  H         5.8191262401        1.0314871794       18.4690362686
  C         4.9159991130        2.8187656490       18.2474051875
  H        12.7846978436        0.8878597371       22.7198482925
  H        12.7423371512        0.5480366491       21.1283358501
  C        14.3243372558        1.9336631631       21.6447665045
  N        10.0433674284        8.5099200697       18.1997317169
  C        10.6413469348        8.2383517196       15.9659745104
  C        10.5385436179        6.0178955095       14.7763834079
  H         9.9744599170        4.3789206067       16.0766305580
  H         1.7984356923        6.7186099837       30.8339801289
  H         0.9735665644        5.2672077048       30.1521702113
  H         2.5321723665        5.0850005191       31.0552014006
  S         4.5300245779        1.6079031748       34.4503603273
  C         4.7579103141       -1.0433357812       35.0308795324
  H         5.0150825641        3.7801884225       18.6488572856
  H         5.2916460013        2.9674841816       17.2949722441
  C         3.4392434742        2.4816366059       18.5400975099
  H        14.3034410248        2.6352186502       20.7762151862
  H        14.9639427984        1.0385917426       21.4371216563
  C        14.6851764145        2.7677267717       22.8588881720
  S        10.2765699976       10.0000486989       17.6426633181
  N        10.6009489255        9.6129235593       16.1076308686
  C        10.7064581188        7.5369790582       14.7172157928
  H        10.7219511978        5.3537833159       13.9903003093
  C         4.2282280434        0.9123521941       36.0019392419
  N         4.3231747669       -0.4295785572       36.1373541015
  O         4.8879263935       -2.2690873377       34.9163637044
  H         2.7521418639        3.3201196813       18.3093478954
  H         3.2969084349        2.3214671150       19.5633076339
  C         3.0307736067        1.1406647724       17.8364222989
  H        14.6894883377        3.8027731479       22.4990470725
  H        13.9289185677        2.6916723296       23.6394447379
  C        16.0170317275        2.2992973285       23.3919743931
  C        11.1051943958        8.3467861254       13.6344846248
  S         3.9410929577        1.7938744308       37.4742623926
  C         4.2442684714       -1.1633544410       37.4234282913
  H         2.1808373746        1.2905572668       17.2094359256
  H         3.9397446853        0.6899869765       17.3448755154
  C         2.6767793250        0.1593801023       18.9011843115
  H        15.8658539532        1.3523618446       24.0370343335
  H        16.3362212333        2.9510438833       24.2132266979
  C        17.2085993375        2.2885680078       22.4110844667
  H        10.7411061200        9.4053412451       13.6341505079
  C        11.7611277812        8.0655431102       12.4634097929
  H         3.4807380882       -0.6955164749       38.1004549996
  H         4.0044068560       -2.2073921235       37.1875214197
  C         5.6518896320       -1.0399438530       38.0822665948
  H         1.9749075495        0.6088514312       19.6652145433
  H         3.5997233544       -0.0672191218       19.3840378096
  C         2.1927466852       -1.1236253832       18.3384546753
  H        17.1860823251        1.2788999765       21.9026766516
  H        17.1213839031        3.1061849073       21.6782268299
  C        18.5737507273        2.5408685783       22.9587322150
  S        12.2823082945        6.5573622352       11.9594013976
  C        11.9519358741        9.1365060777       11.4497206162
  H         5.9155804588       -1.8730471133       38.7947732963
  H         6.4583622811       -1.0341839308       37.3084551265
  H         5.8244275906       -0.0833882852       38.4863283518
  H         3.0246203183       -1.8032012795       18.2423114124
  H         1.8891740720       -0.8541567848       17.2937876316
  H         1.3031176839       -1.5551268267       18.8202250852
  H        18.4203470191        2.9599088509       23.9719825666
  H        19.0476849942        3.2887533276       22.3515860193
  H        19.1172054063        1.6204352776       22.9602642146
  C        12.8800962870        7.3484413557       10.4380796778
  N        12.5644287246        8.6907765001       10.3468854509
  O        11.6365159596       10.3191690798       11.6332801585
  S        13.1846457177        6.4715599689        8.9484106428
  C        12.7487380014        9.5524765592        9.1376811998
  H        13.1517725010       10.5318697696        9.4600085939
  H        13.5001243976        9.1582450153        8.4148017149
  C        11.3496987718        9.6400977324        8.5014633031
  H        10.5583211371       10.1652704060        9.1127931278
  H        11.4631852976       10.2296428375        7.5925031832
  H        11.0546945220        8.6558744846        8.1910666844
  H        23.8160462140        9.9232661332        3.2078212165
  C        23.2790742478       10.5250447030        3.8602802224
  H        23.7081626995       11.5332447778        3.7133959298
  C        23.4626912511       10.2700525455        5.3242354822
  C        21.8440934894       10.5502941428        3.4411744568
  C        22.3320455456       10.7366374646        6.2880105023
  H        23.6148453057        9.1684047790        5.3395750623
  H        24.4150617286       10.8692899035        5.5659148592
  H        21.3111450975       11.4532195902        3.7177060565
  H        21.3973880365        9.6328380336        3.7945313221
  H        21.7734884802       10.4840820075        2.3368455575
  C        21.4383608442        9.5505433969        6.6942337561
  H        22.7225340460       11.0630443472        7.2424321623
  H        21.6238059944       11.5197932066        5.8843277915
  C        20.4565224871        9.7966235346        7.8902501868
  H        22.0507529307        8.6877255799        6.8310684721
  H        20.7932800734        9.2913501955        5.9011647688
  C        19.2240700454       10.5763735114        7.4544903119
  H        20.8595994912       10.4228862566        8.5671130103
  H        20.1902920362        8.8476347191        8.3115989175
  C        17.9804483155        9.7686741200        7.0653916825
  H        18.9873869659       11.3174160180        8.2567720425
  H        19.4975526466       11.1562099910        6.5937026290
  C        16.6505775149       10.5833330054        7.0229843839
  H        17.8438431601        9.0388200988        7.8779528055
  H        18.0979260664        9.1695133498        6.1426973745
  C        16.9967115573       11.9684227036        6.3075300667
  C        16.2543566666       11.3595498225        8.2613409288
  C        15.4889230490        9.7924433554        6.3791116435
  C        16.8491621231       13.0391355980        7.1914899348
  C        17.5658527771       12.3530230854        5.0970112752
  C        16.3311589362       12.6805035627        8.4269372600
  C        15.8020778676       10.6954061347        9.4384683067
  H        15.8670482164        9.3154757310        5.4736514611
  H        15.2323190324        8.9122002258        6.9361775303
  C        14.2233412963       10.7053184370        6.0003476311
  S        17.3055496925       14.5713919773        6.4891935290
  C        17.7301918973       13.7207473431        5.0058594693
  H        17.6641027317       11.5821094108        4.3296196677
  C        15.9249032246       13.2932715953        9.5991313005
  H        15.6565038391        9.6317117313        9.4243512168
  C        15.4761653378       11.2725435984       10.6333270114
  H        14.4638820796       11.5487458005        5.4053714322
  H        13.7611777357       11.1525363318        6.8917680558
  C        13.3171633778        9.9112671284        5.1450505669
  C        18.1092810566       14.4783050412        3.7385353786
  C        15.4331317439       12.6290047548       10.7470302195
  H        15.9807197413       14.3295700674        9.7937823523
  C        15.0431825237       10.8486878277       11.8898604191
  H        12.3590056041       10.4328401732        5.1635314517
  H        13.0602714341        8.9228760405        5.4990890424
  C        13.7933167596        9.8533035603        3.6731488955
  C        18.0349515802       15.9052806436        3.5864312078
  C        18.4203244949       13.6968579110        2.5992683699
  C        14.9350727713       13.2839888569       12.0688131181
  C        14.6563704429       11.9166870346       12.7355991090
  S        14.9685185157        9.3700694800       12.6840281183
  H        14.5238045670        9.0403169799        3.6933835629
  H        14.3714240122       10.6951593119        3.3239025543
  C        12.7080249205        9.6332704108        2.6158859327
  N        17.7327385763       16.8799234219        4.5283265849
  C        18.2887949508       16.4731064258        2.3245373114
  C        18.5748890655       14.2903417783        1.3574747722
  H        18.5014791994       12.6314326389        2.6571980042
  C        13.5768735447       14.0783575700       12.0509018592
  C        16.0231058481       14.0883484521       12.7842822733
  C        14.3377554458       11.4628885233       14.0265507957
  C        14.3887927600       10.1426875361       14.1217021063
  H        12.0411505958        8.8961291275        2.9536817682
  H        12.1392960163       10.6381276680        2.6009295924
  C        13.3586143765        9.3403330662        1.2734510911
  S        17.8136945938       18.3307849372        3.8632345984
  N        18.2294212149       17.8986166761        2.3410979028
  C        18.5506169436       15.7260503532        1.1387538418
  H        18.8252969380       13.6665131419        0.5316357939
  H        13.8326246250       14.9749473570       11.5560225046
  H        13.3111553675       14.3272378811       13.0871108125
  C        12.3785165780       13.3157134988       11.4053291111
  H        16.3969470465       14.7175084675       11.9830167201
  H        15.6040382702       14.8376021086       13.4306885225
  C        17.1630497397       13.2302624659       13.4371511552
  H        14.0561860956       12.2219247082       14.7145574801
  C        14.0784118579        9.3899347725       15.3530472375
  H        13.0607185268        8.3145387215        0.8562961144
  H        14.4359868824        9.2149565794        1.3743662276
  C        12.8973259729       10.3311979791        0.1379593618
  C        18.8047866530       16.4264616377       -0.1204128859
  H        12.5973932454       12.6533955617       10.5525396441
  H        11.9180495860       12.7464786446       12.2206805235
  C        11.2629209270       14.3286367993       11.0765230738
  H        17.4957655831       12.4298004746       12.8341839076
  H        16.9793407405       12.7806530257       14.4091146504
  C        18.3778592505       14.2002278496       13.6120819274
  C        14.0408720574        7.9757707139       15.5369856075
  C        13.9589785239       10.1267808926       16.6416346208
  H        13.2212281044       11.2911655898        0.5479851773
  H        13.4618802010       10.1862257893       -0.8025719365
  C        11.3374321604       10.2162640524       -0.1359579476
  H        19.1011747838       17.4561072878        0.0361524497
  C        19.0865834889       15.8804137458       -1.3889731556
  H        11.6277280436       15.0731057086       10.3154980424
  H        10.8993405333       14.8559852110       11.9281847764
  C        10.1999786901       13.5269728861       10.3672849249
  H        18.6267222399       14.8454649656       12.7295066019
  H        18.1981813102       14.8221363537       14.4215105099
  C        19.6846765342       13.4927312260       13.9928273283
  N        14.2152655974        7.0603645523       14.5124732040
  C        13.7359057687        7.4222811656       16.7194255475
  C        13.6111839542        9.5354145954       17.8559701170
  H        14.0079431961       11.1445963944       16.6885346700
  H        11.1041047148        9.3478967760       -0.7199000697
  H        11.0684310538       11.1120561081       -0.7204404690
  H        10.6668157515       10.1876437455        0.6432118342
  S        19.4219927689       14.2375290139       -1.8940273468
  C        19.2218446095       16.8229906943       -2.4912159129
  H        10.5245069574       12.7929419659        9.6769858747
  H         9.7160848369       12.9836850515       11.2217830314
  C         9.0869143888       14.3724123138        9.7035756194
  H        19.7686488649       12.5761791510       13.4056535049
  H        19.4757426675       13.1121831372       15.0315064591
  C        20.8809259605       14.4094511497       14.0025044198
  S        14.0546424885        5.5840827950       15.1459727906
  N        13.5101553889        6.0053020345       16.5921257173
  C        13.4744674208        8.0755178561       17.9113166869
  H        13.5324868135       10.1872114549       18.6866373448
  C        19.7241461817       14.9175437847       -3.4384100305
  N        19.5685411487       16.2190013692       -3.6355444814
  O        18.7845417114       17.9809075331       -2.3428494616
  H         8.6728253271       15.0952603252       10.3022601528
  H         9.4986207559       14.8708644711        8.7939238671
  C         8.0003019692       13.5259271859        9.1194937149
  H        21.7878706541       13.8234474651       14.0822527368
  H        21.0248504159       14.8130127912       13.0152346228
  C        20.8064167225       15.5375501365       14.9848510526
  C        13.1795845205        7.3306745125       19.0941783600
  S        20.0314374897       13.8868240508       -4.8788202111
  C        19.4394265458       16.8585097153       -4.8979936578
  H         8.3786489332       13.0402289412        8.2805237801
  H         7.8807254755       12.6770325000        9.8433463391
  C         6.6545851313       14.2472817529        8.9449186702
  H        20.4253498315       14.9910578634       15.8460116612
  H        20.0351446940       16.2331916236       14.6467786700
  C        22.1254637186       16.1133691390       15.2967072297
  H        13.3466903370        6.2958737999       18.9728202070
  C        12.6904226517        7.7572558781       20.3126655331
  H        20.0980046636       16.3925145227       -5.5843214467
  H        19.7468695348       17.8573378985       -4.7886222544
  C        17.9673579806       16.8532254507       -5.3734848014
  H         6.0426739524       13.8901804999        8.0925035346
  H         6.8240281603       15.2757281382        8.5954057062
  C         5.8026077603       14.2117998661       10.2107769052
  H        22.0985260097       16.5234047688       16.2551150607
  H        22.8227064068       15.2864335584       15.3541181434
  C        22.6262003069       17.0881844680       14.2749338691
  S        12.1902284454        9.2354076389       20.9027077503
  C        12.5929011796        6.6241301784       21.3240181622
  H        17.7107913621       15.7624180481       -5.4357254333
  H        17.8352926213       17.3219288957       -6.3245703105
  H        17.2859063311       17.3161537849       -4.6829639561
  H         6.4805027181       14.4480706789       11.0538261794
  H         4.9169491914       14.9194459444       10.2175464717
  H         5.5445704247       13.2078578748       10.5141706522
  H        22.8903190406       16.4947444820       13.4161569161
  H        21.8229076651       17.8105370804       14.0667410281
  H        23.4651566313       17.6571559648       14.7848856499
  C        11.8552512086        8.4700772731       22.4350860891
  N        12.0454323872        7.1388153789       22.4115068748
  O        12.9006033888        5.4559590573       21.0994461080
  S        10.9882013418        9.2649423210       23.8235495404
  C        11.9261821350        6.3733313458       23.6325854559
  H        11.6371520745        5.3152069565       23.4396133596
  H        11.1441567705        6.6983828075       24.2719156778
  C        13.3079167756        6.4148098703       24.2905964661
  H        13.4284751080        5.7090147310       25.1597396004
  H        13.4135556403        7.4203673610       24.6910524718
  H        14.1270684887        6.2476733769       23.6363259909
