352
 i =    40900, time =    40900.000, E =        24.5574668985
  H        11.6192604705        7.4188186830       32.6732586965
  C        11.6770283821        6.3136538555       32.5876816236
  H        12.6570617959        5.9467211348       32.3883888776
  C        10.6439048864        5.9551377626       31.5003730374
  C        11.1682979662        5.7753550856       33.9100017531
  C        10.9114016533        6.5335993459       30.0764726325
  H        10.6577928583        4.8842853885       31.4101611082
  H         9.6635308577        6.3673319282       31.8262483401
  H        10.9831213758        4.7030595449       34.0038960209
  H        11.9589572636        6.0595752958       34.6359284450
  H        10.3172452869        6.3279613850       34.2878292544
  C        10.0951927062        5.7865262094       29.0071701190
  H        11.9760089350        6.4116409054       29.8038368452
  H        10.6145195651        7.5952649748       30.0639757377
  C        10.7141871379        5.9839587707       27.6130390562
  H         9.9845348226        4.6861999802       29.1949556961
  H         8.9766904125        6.0530894732       28.9866009023
  C         9.7994396625        5.4030221571       26.5409913015
  H        11.6564394355        5.4005291455       27.6244761279
  H        10.8932003398        7.0411704136       27.3661487828
  C         8.5610559660        6.2159004253       26.0842852490
  H        10.3264829753        5.1996648576       25.6037119932
  H         9.4411749162        4.4591711498       26.8215154492
  C         7.4127354286        5.4628805883       25.4025286633
  H         8.1518194160        6.5848449710       26.9519001156
  H         8.9759634121        6.9692684143       25.4466965694
  C         7.1076163081        4.1025068848       26.1003012582
  C         7.8667316553        4.7834447457       24.1788812159
  C         6.1331495317        6.3108874895       25.2953540187
  C         7.3440198096        3.0305031231       25.3015633036
  C         6.6821742034        3.8130879791       27.3861374537
  C         7.8930684547        3.4412562088       24.0792704245
  C         8.3330273610        5.5169383035       23.1064673328
  H         6.3533338656        7.0307380707       24.5538044859
  H         6.0344131534        6.8512217698       26.2221575600
  C         4.8505507566        5.5900511924       24.8953043070
  S         6.8940511006        1.5412143182       26.0745020204
  C         6.5342601791        2.4546297682       27.5148856137
  H         6.4575372272        4.5472600973       28.1329821661
  C         8.3308545550        2.8543019371       22.9730538372
  H         8.2654735203        6.6404603066       23.2586204645
  C         8.6905479371        4.9780293084       21.9181498454
  H         5.1360335375        5.5090612802       23.8684997205
  H         4.5852104109        4.5719232998       25.2169353724
  C         3.5944742449        6.5560434230       25.0573413280
  C         6.0105162969        1.8750442805       28.7641557909
  C         8.7114772869        3.5888316261       21.8204396357
  H         8.3432297326        1.7686242086       22.8391673697
  C         9.1740938177        5.3109918298       20.6730717350
  H         2.8430827999        6.1720953478       24.3287810379
  H         3.7658165598        7.5591022407       24.6427753677
  C         2.9340890904        6.7258322093       26.4203088490
  C         6.0415748086        0.4791701812       29.0493164523
  C         5.4437565526        2.8039548009       29.8551719721
  C         8.9685522879        2.8275507112       20.5250956183
  C         9.3179715732        4.1997386573       19.8507327638
  S         9.3753175082        6.7617536308       19.7896944882
  H         2.1195900186        7.4000953433       26.3913417631
  H         3.7356752388        7.1866718282       27.0316067439
  C         2.5203225202        5.3729758148       27.1020213944
  N         6.4878212146       -0.5329660273       28.1799078556
  C         5.6795773010       -0.0586391376       30.2198672188
  C         5.1248154470        2.2324121868       31.0810905335
  H         5.1864076686        3.8262981883       29.6758920727
  C         7.7414542378        2.0312615514       20.0212619559
  C        10.1743697190        1.9270734115       20.5697228560
  C         9.7634903620        4.5125673711       18.5644541782
  C         9.8690624258        5.9009432127       18.3733262757
  H         1.9899426603        4.7464849318       26.3972614925
  H         3.3137645323        4.7028227475       27.3577910958
  C         1.7552542760        5.5997316539       28.4085373156
  S         6.2315282525       -1.9668173881       28.7988736862
  N         5.8671404086       -1.4454581764       30.3015093030
  C         5.2402988921        0.7388494427       31.2988608348
  H         4.5097228586        2.7738817358       31.8037147963
  H         7.5126016186        1.1860879729       20.7081145666
  H         7.9374007586        1.5926636098       18.9888432564
  C         6.5645443301        3.0071655837       19.7720397665
  H        10.4759992777        1.5153056543       19.6000682877
  H         9.9148757776        1.0151701218       21.0932183925
  C        11.3925631224        2.6104364294       21.1918351229
  H         9.9237074420        3.8043071719       17.7641668158
  C        10.1041731913        6.5991613570       17.0590477334
  H         0.9376383870        4.8498748639       28.4185844905
  H         1.1100371823        6.5052819442       28.3436796472
  C         2.6836997421        5.4638925806       29.5734928830
  C         4.9841136161        0.1528246533       32.5465083569
  H         6.8358427661        3.6842090278       18.9881028258
  H         6.3108135949        3.6065227170       20.5820017137
  C         5.3894098676        2.2598755860       19.1883519612
  H        11.4919990222        2.5493177784       22.2980223040
  H        11.2262904585        3.6600370368       20.9871411198
  C        12.7516908807        2.0120848725       20.5885938063
  C        10.0705817012        8.0345456000       16.8765556533
  C        10.3793612585        5.8694834046       15.7569566597
  H         3.1288854620        4.4795339941       29.7452627323
  H         3.5062625146        6.2030260662       29.3366280618
  C         1.8300759610        5.6181398048       30.8547365229
  H         5.2845876152       -0.8874952327       32.4633035314
  C         4.6916247340        0.6269013547       33.7851909193
  H         5.3188573824        1.3790743725       19.8145746610
  H         5.6889641200        1.9029549128       18.1785876322
  C         3.9618814983        2.9100102697       19.1636488773
  H        12.8672264307        0.9866344834       21.0141002573
  H        12.7974708421        1.7189728419       19.5367836372
  C        14.0483864873        2.7549475567       20.9399375961
  N         9.7779390786        8.9114149900       17.9178157498
  C        10.4963792487        8.6688961402       15.7771291243
  C        10.6211087730        6.5219287023       14.5703146829
  H        10.2639302751        4.8539347907       15.7629521536
  H         1.0605866247        4.8417806655       30.8730060140
  H         2.5411205819        5.3402588749       31.6607290363
  H         1.2959552492        6.5534436392       30.9904559768
  S         4.3250269439        2.1879328081       34.3058851085
  C         4.5835568280       -0.4027669157       34.8788701279
  H         3.8346948715        3.1860417210       20.2285448379
  H         3.9476476966        3.8373006336       18.7191892278
  C         2.8944056131        1.9170728801       18.7417357931
  H        13.9867440990        3.7557488243       20.4637493177
  H        14.8380192717        2.2632005659       20.4894346451
  C        14.3787834355        2.9370193373       22.4561641506
  S        10.2389162727       10.3948303765       17.5088361407
  N        10.4922366864       10.0552923364       15.9393010136
  C        10.7852309477        8.0072436493       14.5655969255
  H        10.6389645215        5.9405003325       13.6296119374
  C         4.0688492910        1.4273796953       35.9492219588
  N         4.2380870507        0.1201114232       36.0432481223
  O         4.7442542816       -1.6245345595       34.7405369571
  H         1.9059937777        2.4035364455       18.8434269353
  H         2.9964969712        1.0709732096       19.4293001733
  C         2.8279012258        1.6175527228       17.2541703068
  H        14.9036541081        3.8748455063       22.6758120677
  H        13.4206663597        3.2194339950       22.9412073490
  C        15.0461603800        1.7255068095       23.0910464280
  C        11.0945717917        8.7316153837       13.3584882308
  S         3.6729163815        2.3658124960       37.3858699118
  C         4.2385671501       -0.6577105009       37.3144939284
  H         1.8721878398        1.9590845013       16.9325625801
  H         3.6445718210        2.2140327468       16.8325283477
  C         3.0152321168        0.1699195612       16.7408752385
  H        15.1956067616        0.9022951673       22.4108834458
  H        14.3560919105        1.4030971039       23.8588907330
  C        16.4768471346        2.0562887931       23.6541608983
  H        10.7315102393        9.7780198323       13.3306237047
  C        11.5578097093        8.4082805451       12.1392907289
  H         3.3406155550       -0.3522667388       37.9033817891
  H         4.0859094919       -1.7365810134       37.1281548016
  C         5.5658277110       -0.5203628527       38.0682609876
  H         4.0450589512       -0.1056325078       16.9513139650
  H         2.8380282601        0.0527209530       15.6787408154
  C         2.1899313415       -0.8580290781       17.4632244029
  H        16.3552387269        2.6831425463       24.5134198057
  H        16.9904347673        1.2281241275       24.1826265331
  C        17.3963018641        2.7885619619       22.6177863134
  S        12.1494448906        6.9021068572       11.6031077962
  C        11.6272787153        9.4976786321       11.1329261724
  H         6.0762493266       -1.4183468979       38.2101513867
  H         6.3133254415        0.0698308452       37.5484199117
  H         5.3143756384       -0.1801065262       39.1315916009
  H         2.6138808835       -1.1533015262       18.4060687823
  H         2.1456735225       -1.6350599574       16.7130545195
  H         1.1626396875       -0.5442540283       17.6102447408
  H        18.5009575099        2.6348410156       22.7737289876
  H        17.3003797784        3.8551656124       22.4936285828
  H        17.2332662055        2.3022626968       21.6136810745
  C        12.6477192915        7.7860263095       10.1069098788
  N        12.2342686839        9.0586271876        9.9986676790
  O        11.3612727004       10.6900268012       11.3958781036
  S        13.2235207115        7.0132611399        8.6251519719
  C        12.3357262919        9.9272731667        8.7919989445
  H        12.3533295634       10.9260512641        9.0283198769
  H        13.2839722344        9.7852683887        8.2651107950
  C        11.1118577645        9.6671464167        7.9148859894
  H        11.3474402119        9.2348761824        6.9925177834
  H        10.3751872134        9.0067175117        8.3812831777
  H        10.6244582653       10.5896947879        7.7681175063
  H        21.5933731500       11.4934934351        3.5952961649
  C        21.8575798428       10.4340343579        3.5775096304
  H        20.9441059274        9.9891783048        3.7448215957
  C        22.7546661155       10.2882625430        4.7522183071
  C        22.6476186358       10.0570070573        2.3685488405
  C        22.0339605298       10.5682277964        6.0286117269
  H        23.2091507723        9.3063803330        4.6566142687
  H        23.6102640261       10.8987491324        4.6812868332
  H        23.6399730102       10.3850189224        2.5681767312
  H        22.1900983102       10.5536373096        1.5052706875
  H        22.8048656313        8.9525172700        2.1346500661
  C        21.2797851113        9.4270650177        6.7313468509
  H        22.8039938102       10.8774647485        6.7007642018
  H        21.3325433396       11.2847355998        5.8463460679
  C        20.4776773775        9.8098568692        8.0036948471
  H        22.0600063669        8.6373833111        6.7948809001
  H        20.6132619237        9.0423128267        5.9805447952
  C        19.2708522151       10.7171949707        7.8344924154
  H        21.1771339639       10.2732434528        8.6624515005
  H        20.1865437521        8.9359001115        8.6605920093
  C        18.0129601436       10.0000933791        7.3551772689
  H        19.0475628957       11.3771822361        8.7043606637
  H        19.6831121586       11.4844353413        7.2032408335
  C        16.7511543784       10.9346869554        7.0472873436
  H        17.7091634124        9.2585543675        8.0978935437
  H        18.3522536620        9.3030965528        6.5746178549
  C        17.2576999708       12.3063424651        6.3935274231
  C        16.2874214943       11.6985611168        8.2187514916
  C        15.5870359641       10.3332900735        6.3064729893
  C        16.9612254737       13.3950131926        7.1418188512
  C        17.8849219280       12.6653877185        5.1987769463
  C        16.4483295025       13.0354974619        8.3338747193
  C        15.6040602378       11.1352263496        9.2844954039
  H        16.0879826266        9.7940389663        5.5025840196
  H        15.1730271843        9.6449354020        7.0246746169
  C        14.5134336300       11.2462373469        5.7461565003
  S        17.4805208987       14.8690470574        6.4848413484
  C        17.9888293493       14.0129259821        5.0737782609
  H        18.0471161889       11.9051625357        4.5092345087
  C        16.1040926523       13.7565818921        9.4732956428
  H        15.4587567903       10.0446811645        9.3381397120
  C        15.4300201544       11.7827378802       10.4548183309
  H        15.1586983263       11.9056457924        5.2618829729
  H        13.9891159869       11.7861590677        6.5680456117
  C        13.4819236073       10.6344803817        4.8192873004
  C        18.3699435372       14.7189472584        3.7961291680
  C        15.6426355443       13.1029157056       10.5940650164
  H        16.1687996067       14.8119641519        9.4952342615
  C        15.0834306833       11.4265912313       11.7428107058
  H        12.6259204627       11.1579438917        4.7684703363
  H        13.1868424007        9.7026287928        5.2778946060
  C        14.0612165563       10.4427218108        3.3664290086
  C        18.2407803318       16.1732310434        3.5334422966
  C        18.9210258187       13.9650123780        2.6661589271
  C        15.2614068069       13.8314092254       11.8307733607
  C        14.9084373756       12.5434719310       12.5819773599
  S        14.6667803112        9.9251762997       12.5464738677
  H        15.0273802806        9.9637947426        3.3416447344
  H        14.3542622627       11.4371423776        3.1668313897
  C        13.1359169457       10.1058079253        2.2299906287
  N        17.8039615230       17.1271899056        4.4949216642
  C        18.5410709021       16.7198328693        2.3056548406
  C        19.0089927595       14.4734714295        1.4019165401
  H        19.0251963830       12.8701861708        2.8053835708
  C        13.9576445563       14.6463052071       11.7396018747
  C        16.3886716397       14.5509763819       12.5182633871
  C        14.5056505024       12.1172915386       13.8720933417
  C        14.2783109413       10.7446687796       14.0411642939
  H        12.9421936670        9.0653022655        2.3447377592
  H        12.1786130653       10.6132107433        2.3367029861
  C        13.7009631840       10.4327579855        0.8604400581
  S        17.7213962183       18.5575496103        3.6906606741
  N        18.3321624929       18.0989729548        2.2553558409
  C        18.8454231094       15.9382507154        1.1235883622
  H        19.0047285547       13.8127745880        0.5328663190
  H        14.1123578946       15.5205308859       11.2067203792
  H        13.8218364285       14.9909112314       12.7244800432
  C        12.7005319451       13.9824293124       11.2067329600
  H        16.6254066825       15.4247751005       11.9110153125
  H        15.9748770022       14.9678703523       13.4351962224
  C        17.6725072267       13.7475190625       12.7836624747
  H        14.4585750512       12.9211428312       14.6634335374
  C        13.9616677964        9.9608641999       15.2936296480
  H        14.7446617290       10.0755169998        0.6706297220
  H        13.6261061332       11.4818272406        0.7744987907
  C        12.9779158569        9.7987783817       -0.3374044783
  C        19.0825327234       16.5507036107       -0.1429879113
  H        12.8515360195       13.7122990241       10.1795326614
  H        12.5165423346       13.0191057878       11.7442159840
  C        11.4087019609       14.8727696207       11.2781514026
  H        18.4725330225       14.1592719312       12.2035645223
  H        17.6635722969       12.7144021945       12.4402824271
  C        18.0910956885       13.8144785555       14.2879798007
  C        13.9226300780        8.5538639646       15.3948448414
  C        13.8069929274       10.7292326737       16.5617339361
  H        13.4153620267        8.8676819669       -0.6646504275
  H        11.9642820786        9.5565156686       -0.0826613063
  C        12.8406976853       10.8138045109       -1.4657573721
  H        18.7196343331       17.6458366040       -0.1601440171
  C        19.3625366236       16.0087409266       -1.3501432574
  H        11.3983669336       15.6324154717       10.5469752729
  H        11.3448107824       15.4468854676       12.2395511739
  C        10.1016567803       14.1106471382       11.0781877602
  H        18.1480124337       14.9278757368       14.5572836063
  H        17.2975198649       13.3367678779       14.8482772001
  C        19.4284255887       13.2099898603       14.4395666722
  N        14.1542729884        7.6250498202       14.3900972173
  C        13.6857653112        7.9508440393       16.6489419189
  C        13.5433409809       10.0789110883       17.7927772626
  H        13.9266731130       11.7619670829       16.5869507858
  H        13.8354241487       11.2203714502       -1.7127123590
  H        12.0300512055       11.4801326551       -1.3178013400
  H        12.4925586774       10.3997448854       -2.4431558407
  S        19.9039755641       14.4207971860       -1.8169229527
  C        19.1006896846       16.9308171672       -2.4906733583
  H        10.2090689355       13.1735136376       11.6224206471
  H         9.1613598660       14.6112403467       11.3897222075
  C         9.9271524594       13.7131403426        9.5966469008
  H        19.5421257381       12.4024180222       13.7391687079
  H        19.3830276747       12.8126713066       15.4308323935
  C        20.6171414793       14.1750070251       14.2774607112
  S        14.0339444602        6.1420058198       15.0914617549
  N        13.6283827763        6.5400220403       16.5847138914
  C        13.3389615260        8.5903156719       17.8471360683
  H        13.5240555287       10.6150062214       18.7012738406
  C        19.8730213076       14.9982402589       -3.4433160811
  N        19.5185370545       16.3054314248       -3.6565837196
  O        18.6729220252       18.0877588974       -2.4655496286
  H         9.9691000457       14.6054769390        8.9538744995
  H        10.7169658520       12.9876641169        9.3145805247
  C         8.6093917618       12.9952168610        9.3128787690
  H        21.5883772646       13.6370002103       14.2961709833
  H        20.5597417575       14.6841596599       13.3498606373
  C        20.6170182679       15.2200711329       15.4296354550
  C        13.0252769281        7.8071207469       19.0120081332
  S        20.1698381018       14.0071109340       -4.8336874974
  C        19.3324300518       16.9785191374       -4.9275805134
  H         8.8205826551       12.3466218513        8.4476527109
  H         8.6174197556       12.3340686964       10.1855971188
  C         7.3619693395       13.8391381096        9.0275811042
  H        21.4647404148       14.9552778641       16.0044874566
  H        19.8301924748       15.0057849360       16.1527950185
  C        20.7661094498       16.7080870355       14.9628955336
  H        13.2170033242        6.7920948143       19.0060907510
  C        12.5592905115        8.2181499698       20.2202877820
  H        19.9502758894       16.5015627303       -5.6806428395
  H        19.8168239079       17.9817330874       -4.9183452641
  C        17.9064793009       16.9736017615       -5.4164500099
  H         6.7748818940       13.6116593081        8.1251723095
  H         7.6949046146       14.9370064939        8.8583169543
  C         6.4040617866       13.7584072720       10.2847475505
  H        20.2816775938       16.7345033085       14.0184689013
  H        20.1360861866       17.4766724204       15.5883841018
  C        22.1877685551       17.1746454346       14.5948299326
  S        11.9145860664        9.7138155834       20.6652740558
  C        12.4350049180        7.1441784844       21.3505582764
  H        17.7460317846       16.1309606465       -6.0748826805
  H        17.6226615078       17.8206903455       -5.9668547156
  H        17.2522105603       16.9323235565       -4.5690471316
  H         6.9748274300       14.1151551653       11.1437336061
  H         5.5434667906       14.4165748220       10.2586102447
  H         6.1810187467       12.7235388787       10.5804053462
  H        22.1840400205       17.6681036339       13.6352809408
  H        22.5979148776       17.7744434844       15.4011625076
  H        22.8494023030       16.3213006297       14.3976234286
  C        11.5157458755        8.9844347990       22.2402168186
  N        11.8117954963        7.7127681871       22.3803203306
  O        12.8032804736        5.9382202739       21.2452317297
  S        10.6546130754        9.7038419148       23.5700165250
  C        11.6133774193        6.8999708345       23.5645444730
  H        11.8379754587        5.8017790045       23.4251488660
  H        10.6239567190        7.0476946382       23.8174930362
  C        12.6649458013        7.3286862964       24.6436217764
  H        13.5244954348        6.7065314721       24.4616348225
  H        12.3440637273        6.9542735706       25.6051924363
  H        12.9505605980        8.3853601019       24.6425457516
