352
 i =    65600, time =    65600.000, E =        24.7630586730
  H        10.4658960610        4.9261173758       31.7189990564
  C        10.8238346114        5.8767922703       32.0844788014
  H         9.9264026473        6.2551536174       32.5724498508
  C        11.2443059197        6.8291324710       30.9120703699
  C        11.9542971156        5.5616942926       33.0984632408
  C        11.9387517521        5.9958031252       29.8632093804
  H        10.3447355454        7.3275317642       30.6119924445
  H        11.9157226349        7.6209218037       31.3394858241
  H        11.7010792939        4.6363312172       33.5921402123
  H        12.9391266185        5.3904545278       32.6031186962
  H        12.0235296754        6.2625594269       33.8926045395
  C        11.0170958260        5.2635429840       28.8837732464
  H        12.6161834138        5.2907792721       30.3186457829
  H        12.5058012626        6.7272526542       29.2779613285
  C        10.2241044645        6.0929119361       27.8904420811
  H        11.6603225349        4.4728050324       28.4181186987
  H        10.3205517793        4.6586794369       29.4895342501
  C         9.5149216205        5.1544183763       26.8367855246
  H        10.7699603437        6.7947379218       27.2836192926
  H         9.4582955316        6.6486422057       28.3571469642
  C         8.3179103426        5.8496573769       26.2455055014
  H        10.2274728861        4.8719623280       26.1030941001
  H         9.2922310179        4.2404605337       27.3587838974
  C         7.4004641634        4.9262330617       25.4144875123
  H         7.5755651015        6.4115263683       26.9442955161
  H         8.5889528410        6.6793003062       25.6107874578
  C         7.0558501592        3.6362110450       26.1576006246
  C         7.9775811242        4.2573846169       24.3322197235
  C         6.1134400858        5.7194289188       24.8555090282
  C         7.3676412170        2.5078863559       25.4001323174
  C         6.5584590153        3.3407897970       27.4095144231
  C         7.8779921091        2.8817853856       24.1738683796
  C         8.4032583571        4.8824630580       23.2290643776
  H         5.6850603053        4.9931793496       24.1220697266
  H         6.3816226416        6.6512875859       24.3650737581
  C         5.0144801284        6.0986992549       25.8630166155
  S         6.9833963871        1.0364788691       26.2155779589
  C         6.4063864318        1.9835833318       27.5942589682
  H         6.4015863590        4.1199483012       28.1063038022
  C         8.3140743771        2.2305452218       23.0408112500
  H         8.3303781406        5.9451467723       23.2804945456
  C         8.7514798820        4.2707882683       22.0604954146
  H         4.8525647509        5.4149554175       26.7082753430
  H         5.2346831312        6.9959298453       26.4102992606
  C         3.6418782957        6.1614056455       25.2521172604
  C         5.9694289639        1.3538975840       28.9854187576
  C         8.7141442718        2.9255673515       21.8950145003
  H         8.2425898754        1.1883522862       22.9369267037
  C         9.1397929615        4.6016766970       20.7996132585
  H         3.4650157742        5.2262125899       24.7813112351
  H         3.5177884771        6.9215375340       24.4984759386
  C         2.6624771701        6.3563399701       26.4449400247
  C         5.7952114881       -0.0260453844       29.2391752305
  C         5.4632504421        2.2607466733       30.0630442194
  C         9.0095138083        2.1523634077       20.6084907105
  C         9.2484844476        3.5117983688       19.9770001452
  S         9.6116321299        6.1003967274       20.0836558233
  H         1.8876281005        7.0619358865       26.2814713628
  H         3.3191770795        6.8233282474       27.2153715685
  C         1.8114458059        5.1149892529       26.7946191335
  N         6.0330634770       -1.0377110808       28.2964193007
  C         5.5570777011       -0.5748933987       30.5159159691
  C         5.1646820293        1.7484092144       31.3204850352
  H         5.3088751671        3.2854917450       29.8032730477
  C         7.7468904649        1.4504023742       19.9956168159
  C        10.3352637541        1.3354166112       20.6377189326
  C         9.7169281045        3.9094617164       18.7046695957
  C         9.9615132816        5.2597652494       18.6663919792
  H         1.1361135616        4.8808392912       26.0549908445
  H         2.4444498401        4.2194183013       26.8729222034
  C         0.9607847208        5.4136099914       27.9888568426
  S         6.0116211703       -2.5433342913       29.0111317772
  N         5.7546114225       -1.9996154096       30.5242155390
  C         5.2383279554        0.2840563357       31.5898765401
  H         4.9873295300        2.4226933899       32.0902640274
  H         7.5506193144        0.7147112103       20.6797541889
  H         8.0241017060        0.9808230921       19.0809233487
  C         6.5986001760        2.5086840419       19.8861481969
  H        10.5739080795        0.9137602256       19.5953675420
  H        10.1284395243        0.5124818626       21.3154694807
  C        11.6034573569        2.0940493094       21.1850657115
  H         9.6952476821        3.2432910337       17.8929184831
  C        10.2511132051        5.9782960318       17.3481955853
  H         0.4220588397        4.4086221237       28.1681198448
  H         0.3000512608        6.2429189254       27.7927411165
  C         1.9359552688        5.6945335872       29.1009338297
  C         5.0704940338       -0.3181258849       32.8888143037
  H         6.6379257885        3.2470701391       19.1959079323
  H         6.5853416531        3.1818939172       20.7091347247
  C         5.2291202097        1.8468498242       19.7447582292
  H        11.4142552371        2.2773547188       22.2946118818
  H        11.7976845441        3.1466834794       20.8115939152
  C        12.8772023531        1.3558436749       21.1650829059
  C        10.1352161712        7.3857902511       17.0792650304
  C        10.6412430046        5.0759462272       16.2611752930
  H         2.7832770404        5.0239172469       29.0113511025
  H         2.2562863123        6.7238418201       29.1075608834
  C         1.3043774685        5.4528480410       30.4351422734
  H         5.2199242028       -1.3895389041       32.7309942497
  C         4.6498368600        0.1096863255       34.1104419687
  H         4.5499565984        2.6960400198       19.8973482250
  H         5.0398928805        1.2345056661       20.6470077275
  C         5.0345384955        1.1095719073       18.4678484113
  H        12.8208844427        0.4623084230       21.7554184181
  H        12.9631712377        0.9703135652       20.1572152581
  C        14.0697558435        2.2268909933       21.5403638544
  N         9.7562930973        8.3649734010       18.0090879886
  C        10.5238715766        7.8961389483       15.8672163415
  C        10.9478611018        5.6253743803       15.0432027213
  H        10.6109900050        4.0050938209       16.4039284918
  H         0.5332813355        4.7889040858       30.2224137933
  H         2.0315913730        5.1879909410       31.1441149386
  H         0.9203083853        6.3977135805       30.9062848314
  S         4.4471918250        1.7798188527       34.5826412508
  C         4.7907967520       -0.8598187648       35.2148318863
  H         5.4451918543        1.7417329017       17.6858052088
  H         5.6219351981        0.1472590855       18.4603517432
  C         3.5457011621        0.9098218402       18.1903477407
  H        13.6822545367        2.7713347408       22.4157537493
  H        14.2485828986        3.0795496044       20.8995707026
  C        15.2834760527        1.3886156370       21.9578027433
  S         9.9615178839        9.8261123191       17.3309999486
  N        10.4414240988        9.3041737326       15.8996673574
  C        10.9879770632        7.1026658093       14.8058470487
  H        11.2389243892        4.9724278352       14.3243915271
  C         4.2845768075        1.0952853882       36.1622094822
  N         4.4574493590       -0.2778837190       36.3156466346
  O         5.1259083905       -2.0448384558       34.9906635486
  H         3.4288929759        1.0814674654       17.1042803095
  H         3.0280094548        1.6556090674       18.6935030013
  C         2.9580449023       -0.4096063990       18.7270595711
  H        15.3055224127        0.8494632519       22.9010272515
  H        15.3546713521        0.6563524676       21.1769256747
  C        16.5131373185        2.2575408548       21.9965756330
  C        11.3915449985        7.7179969134       13.6017622194
  S         3.7537014282        1.9769627149       37.5804152084
  C         4.3732421103       -0.9525218073       37.6062834791
  H         3.4311878584       -0.6559361554       19.7008184442
  H         1.8899228089       -0.2372328178       18.9147812213
  C         3.0793487646       -1.5100649868       17.6743919899
  H        16.4354800380        2.9722715294       22.7963007399
  H        16.7488757679        2.7504496477       21.0737876271
  C        17.6938374823        1.2650994830       22.3371366815
  H        11.2377026533        8.7293309815       13.5355900955
  C        11.8224147158        7.4816100944       12.3387510813
  H         4.0146578262       -0.3666151918       38.4168855474
  H         3.6646772927       -1.7435609026       37.6861476044
  C         5.7968251941       -1.2860973080       38.1020865642
  H         2.8053689493       -2.4691306208       18.1603166491
  H         4.1453893775       -1.4901478699       17.3886256505
  C         2.1735608899       -1.3456348023       16.4911621935
  H        17.4002718764        0.4539029988       22.8940335394
  H        18.0298256949        0.8858976634       21.4294781158
  C        18.7643515746        2.0740685087       23.0854478416
  S        12.2625132914        5.9633295433       11.7594222447
  C        11.9908925224        8.5763423637       11.3225137627
  H         5.6984389873       -1.5832349208       39.1343767353
  H         6.3638801044       -2.0537931218       37.5960409564
  H         6.3402054114       -0.3691625793       38.1291995108
  H         1.2322640742       -1.1406175770       16.9173176812
  H         2.1174130879       -2.3608885050       15.9753184301
  H         2.3269081617       -0.4653482286       15.7957615764
  H        18.8417559201        1.8864119257       24.1997179444
  H        18.6482049698        3.1661930147       22.8341370522
  H        19.6691818409        1.6567248692       22.6731403763
  C        12.6312534751        6.6903851463       10.2018541632
  N        12.4142438150        8.0295033667       10.1567133024
  O        11.7788697635        9.7370084682       11.5950659285
  S        13.3519834495        5.9436980831        8.7447624168
  C        12.6099045291        8.9405949316        9.0572778555
  H        12.9997411865        9.8886151120        9.3910704560
  H        13.3664107094        8.6622513936        8.2918110791
  C        11.3222754139        9.2794006897        8.3138528186
  H        11.3565649456        9.3097194218        7.2408275483
  H        10.6190473056        8.5226804083        8.5779844856
  H        10.9489161871       10.2657868248        8.4976309398
  H        22.5370479008        8.5715060174        3.6677092278
  C        22.5636606025        9.6615923009        3.8531580178
  H        23.3021472904       10.0452757361        3.1628263347
  C        23.0661168592       10.2176398922        5.1100623741
  C        21.3677583949       10.2593569529        3.2003596577
  C        21.8741483448       10.4321176094        6.0585344850
  H        23.9135068155        9.6669614047        5.6040840489
  H        23.4941452913       11.2205830184        4.8794747300
  H        21.4362838840       10.0149841276        2.1873988457
  H        21.3005649374       11.3426631302        3.3633899746
  H        20.3928207974        9.8702553820        3.5776255687
  C        21.3194941256        9.1047758480        6.4767064780
  H        22.1811877971       11.0390491840        6.8984826535
  H        21.2887398603       11.1385168057        5.5189410310
  C        20.2951303885        9.2054568728        7.5597305323
  H        22.1821157708        8.5074753859        6.7319497318
  H        20.9842448307        8.5229174394        5.6127056613
  C        19.1739258522       10.1544831960        7.4441152720
  H        20.9332202813        9.4079263012        8.4714299361
  H        19.9310258839        8.2443239112        7.8064269105
  C        17.9403035930        9.4460614143        6.9975201353
  H        19.1474974716       10.7215943103        8.3564436863
  H        19.4413890673       10.9392779802        6.8141168049
  C        16.7634024127       10.3996140763        6.8252327028
  H        17.6889209099        8.6463711699        7.7922364664
  H        18.0428517281        9.0821734241        5.9707140794
  C        17.0180609891       11.7915897741        6.1514507436
  C        16.4134456720       11.0769810587        8.1184559822
  C        15.5942716788        9.6228465718        6.1325801181
  C        16.8414319316       12.8420044295        7.0004720640
  C        17.5264177128       12.1434933351        4.9347282133
  C        16.4780091635       12.4006350666        8.2188869936
  C        16.0211673750       10.4501470842        9.2758381236
  H        15.8694201308        9.3955950633        5.1221519100
  H        15.4617752742        8.6904674912        6.7217543881
  C        14.3232871375       10.3939170315        5.8368802572
  S        17.3145681578       14.3526795078        6.2722861708
  C        17.7512154908       13.4900389676        4.8362306007
  H        17.6978866125       11.3035224753        4.2893299961
  C        16.3049989752       13.0323898716        9.4354165783
  H        15.9038870513        9.4091096565        9.2125869670
  C        15.7879493701       10.9857426222       10.4836186640
  H        14.5633490926       11.2512089412        5.2635010810
  H        13.8241818497       10.7772382724        6.7327280412
  C        13.2503604188        9.6301195806        5.0386610523
  C        18.2681026582       14.2704630632        3.5842039032
  C        15.8899834826       12.3227263949       10.5622635562
  H        16.3470785764       14.1040015177        9.5711095457
  C        15.4185780639       10.6337446609       11.7798632893
  H        12.3555205328       10.2362549656        5.0214716115
  H        12.9960826396        8.6900593886        5.5265012554
  C        13.7010523629        9.4460556733        3.5965601105
  C        18.2814716101       15.6950957985        3.3600487140
  C        18.5608772777       13.4833530082        2.3763756681
  C        15.6157134919       13.0741448525       11.8646918802
  C        15.3406324694       11.7468359741       12.6436784584
  S        14.8316020906        9.2341354033       12.6133282004
  H        13.9712516594        8.4027105853        3.4509896807
  H        14.4561134977       10.0712333964        3.2787474966
  C        12.5690713380        9.8289736238        2.6181090979
  N        17.8997852833       16.6262928078        4.3768599926
  C        18.4497645259       16.2944105738        2.1531037035
  C        18.7635901205       14.0393239928        1.1467123779
  H        18.4390631953       12.4114837636        2.4283934155
  C        14.3085898041       13.8936460517       11.9173776806
  C        16.7646219581       13.9451561919       12.3740447179
  C        14.9887209037       11.4029757462       13.9699560184
  C        14.8081160348       10.0615350411       14.1441067948
  H        11.6117708091        9.5368344739        2.9861123239
  H        12.7030441166       10.8772973886        2.5875809298
  C        12.7454552654        9.2089533402        1.2483984608
  S        17.9495064895       18.1003113900        3.6749829924
  N        18.3961841032       17.7128578244        2.1569288166
  C        18.7773325301       15.5329584840        1.0000333871
  H        18.8445060748       13.3161222841        0.3528721859
  H        14.4767245900       14.5943016305       11.1061454383
  H        14.2283161527       14.4831160432       12.8347468529
  C        13.0449885121       13.0889219442       11.7263620493
  H        16.9955047351       14.8388967009       11.7604302041
  H        16.4711959825       14.3987039208       13.3017328873
  C        18.0668899573       13.1651613420       12.7092875449
  H        15.0082115515       12.2050860946       14.6643815326
  C        14.3510192921        9.2685638157       15.3356707756
  H        11.8098098355        9.0144813999        0.8833256515
  H        13.2222741559        8.2540915068        1.3208444441
  C        13.5156604598       10.0161672653        0.2316491619
  C        19.0377667873       16.2511027639       -0.2006943160
  H        13.2336791046       12.4235983919       10.9115506524
  H        12.8148983013       12.5339697655       12.6108430462
  C        11.7752744916       13.8991663074       11.3770909507
  H        18.6152572941       12.9699140340       11.8449659445
  H        17.8191798460       12.2717152257       13.1773165455
  C        18.9744060288       13.9666241868       13.6378848763
  C        14.2792949315        7.8515138993       15.4765996486
  C        14.1383569182       10.0207161631       16.5829278731
  H        13.0034050676       10.9557698744        0.2338312000
  H        14.5186579227       10.1900106593        0.5683217891
  C        13.3814873438        9.3535043634       -1.1374073818
  H        18.5838745624       17.1777365822       -0.1439513719
  C        19.3346090101       15.8555326423       -1.4990006638
  H        11.8355737424       14.5043823204       10.5077554097
  H        11.4792725105       14.5457284541       12.2129218717
  C        10.6898668767       12.8880417066       11.0286574870
  H        19.0309538029       14.9732341668       13.1932307016
  H        18.4093530637       14.0266443757       14.6079252078
  C        20.4280101856       13.4567989333       13.8653484789
  N        14.6431698420        6.9171624200       14.4575552928
  C        13.9260629319        7.2258479086       16.6605532997
  C        13.6797270661        9.3963298636       17.7289538555
  H        14.2111622770       11.1291136225       16.5842706435
  H        13.9459661980       10.0242424682       -1.7879430012
  H        12.2638291638        9.4105910364       -1.3036218281
  H        13.6674731435        8.3276514435       -1.3518909165
  S        19.7403254153       14.2266781279       -1.9647252228
  C        19.2675535835       16.9111050505       -2.5527872998
  H        11.0147892264       12.2251491819       10.2583521306
  H        10.4789409985       12.2164133545       11.8395979996
  C         9.4310134340       13.5194834122       10.6801419862
  H        20.9146282620       13.1698889020       12.8964626973
  H        20.3682716531       12.5752583219       14.5151062926
  C        21.2921777715       14.4914680411       14.5705092008
  S        14.6861865509        5.4172627265       15.1957551398
  N        14.0164823667        5.8307748718       16.6273304258
  C        13.5589467965        7.9038123746       17.8444141202
  H        13.6648663998        9.9049826557       18.6481808882
  C        19.7671916816       14.9160139398       -3.5520612981
  N        19.6788450291       16.2498936702       -3.6517301973
  O        19.2771156254       18.1067717369       -2.3786362063
  H         8.8808503545       13.6454565968       11.5999424654
  H         9.4733955381       14.5741046527       10.3707739568
  C         8.7562206609       12.6765605355        9.5105316875
  H        20.8056176049       14.8517428646       15.4485002504
  H        22.2524259090       14.0529179365       14.9169071111
  C        21.8055073180       15.7770618065       13.8246658963
  C        13.4066131429        7.2020384994       19.1510368406
  S        20.4521969387       14.1988481369       -5.0064629840
  C        19.6920074375       17.0004961626       -4.8741080550
  H         9.5369808990       12.3516406216        8.8155634968
  H         8.3336875060       11.7495894809        9.7673041034
  C         7.6387423840       13.4174578607        8.8450131492
  H        20.9147787524       16.2352647305       13.3292189962
  H        22.4620629646       15.4564184477       13.0146979095
  C        22.5851031340       16.6687022775       14.6752954361
  H        13.5925295661        6.2396434235       19.1504335412
  C        12.8717080461        7.6788621356       20.3613905161
  H        20.5021001761       16.7181054541       -5.5289677438
  H        19.8892785350       18.0056214932       -4.7206688620
  C        18.3853886756       16.8573802325       -5.6244147308
  H         7.5383924847       12.9444815610        7.8627127387
  H         7.8430829104       14.4710547756        8.6372841336
  C         6.2572773031       13.2116688249        9.5303769712
  H        23.4380877578       16.1882179220       15.1428086414
  H        22.9921678302       17.4571997337       14.0959847592
  C        21.8215991002       17.3353624895       15.7831598240
  S        12.2787210096        9.2216385586       20.6568460106
  C        12.6556435166        6.7257864949       21.4565556395
  H        18.6861796916       17.0485923536       -6.6345292091
  H        17.6465970089       17.4961434901       -5.2169769998
  H        17.9971939019       15.8469902114       -5.5365631455
  H         6.1465565732       12.1825087868        9.7924846745
  H         6.2031887647       13.6748688813       10.5048733000
  H         5.3635540829       13.5634625560        8.9171410796
  H        21.4904797587       18.3400059347       15.4722796991
  H        20.9007329451       16.9710820889       15.9783546018
  H        22.4173406399       17.3554591696       16.6889082810
  C        11.8817403128        8.7130708132       22.2682529441
  N        12.0059375222        7.3715571108       22.4829301027
  O        12.7973673408        5.5019507173       21.3817485820
  S        11.2060016238        9.7418157800       23.5752277692
  C        11.6883588639        6.6353762391       23.7449343740
  H        11.2896520927        5.6224217898       23.4716341392
  H        10.9055117772        7.2700279242       24.2267662516
  C        12.9609555111        6.6664015044       24.6026366467
  H        13.5505593361        7.5715613221       24.3804921369
  H        13.6420668118        5.8756045220       24.2929799470
  H        12.7623897890        6.5886822717       25.6688934858
