352
 i =    83300, time =    83300.000, E =        25.0006216281
  H        11.1957600521        7.7604385689       31.1975369215
  C        11.9538857372        7.0859851328       31.5921166848
  H        12.9074233489        7.6949514293       31.6371456403
  C        12.0889198062        5.9517604151       30.5475629288
  C        11.4994569859        6.7830744992       33.0380250868
  C        10.7442416183        5.4169945661       29.9231842969
  H        12.7963724820        6.3222014697       29.8123081568
  H        12.5630273350        5.1028281270       31.0241282911
  H        12.2602871847        6.9980016609       33.8084208585
  H        10.6581105575        7.4175502601       33.3008848329
  H        11.1633260322        5.7472849243       33.2844303737
  C         9.9914363774        6.2884125432       28.8850098479
  H        10.0275592399        5.2076902198       30.7468837256
  H        10.9748686410        4.4356732585       29.5845729342
  C        10.3884324237        6.0521150310       27.4544010983
  H         8.8795163113        6.3170148011       28.9896987542
  H        10.3699420669        7.2203718041       29.2100407433
  C         9.3022204214        5.1547406754       26.7152048246
  H        11.3633267675        5.6279134057       27.4611340907
  H        10.7095725415        6.9408188707       26.9956679531
  C         8.0860499767        5.9618745109       26.2241021993
  H         9.8424867760        4.6674312456       25.9276589553
  H         9.0330175483        4.4544400301       27.5163013541
  C         7.1287663035        5.0666750182       25.4217108104
  H         7.5478920804        6.5297274239       26.9790443928
  H         8.6006224030        6.7109927491       25.6954539234
  C         6.8530912929        3.7685248932       26.2212662702
  C         7.8029757000        4.3262249475       24.3025917965
  C         5.8549180946        5.6637270469       24.9567757261
  C         7.1664974570        2.6678935320       25.4498986674
  C         6.3598804724        3.3972097338       27.5118822168
  C         7.7846739088        2.9574813905       24.2553924324
  C         8.3181049204        5.0076819435       23.2209645397
  H         5.3860007537        4.8786833975       24.3362443269
  H         5.9648336656        6.5316414819       24.3380055722
  C         4.8450919766        6.0885827995       26.0651449054
  S         6.6839823596        1.1269719826       26.1930248988
  C         6.2271122961        2.0484320779       27.6583679131
  H         6.1682036508        4.1355500213       28.2527368976
  C         8.2340432926        2.3041037408       23.1259163964
  H         8.3134901650        6.0297689099       23.0873557258
  C         8.7444049793        4.3859252911       22.0758334947
  H         4.8933906069        5.3889120630       26.9219404292
  H         4.9159987155        7.0593650823       26.4898547931
  C         3.3972096316        6.0799991030       25.5684831515
  C         5.8099132903        1.3852446978       28.9608559311
  C         8.7091546967        3.0625156707       21.9933873894
  H         8.1520015760        1.1762791510       23.0118263980
  C         9.1848897735        4.8213205674       20.8898801178
  H         3.1425443875        5.1652475747       25.1852677051
  H         3.2944629391        6.7809678463       24.7647367993
  C         2.4007035638        6.3493933227       26.7236955554
  C         5.8919846386       -0.0562076006       29.1502979388
  C         5.3249131515        2.2717008809       30.0557814295
  C         8.9294320416        2.4371641629       20.6311954337
  C         9.1876816064        3.7707877269       20.0118023646
  S         9.5300648434        6.3640555652       20.2233495233
  H         1.6280668595        6.8783226610       26.3099419599
  H         2.7872627485        7.0327812958       27.5315293564
  C         1.8460978528        5.0239806583       27.3166722729
  N         6.2885593540       -0.9595757660       28.1824252536
  C         5.5947303189       -0.5967506559       30.4012154637
  C         5.1822887806        1.6728620928       31.3034093006
  H         5.1455886550        3.3448380781       29.9411869602
  C         7.7633621845        1.6677255060       20.0158219477
  C        10.2017351734        1.4837076952       20.6058938638
  C         9.7315344177        4.2325948435       18.8011182574
  C         9.9049113189        5.5628819235       18.7133862649
  H         1.2104129366        4.5487909283       26.6462720704
  H         2.6154332601        4.3669651266       27.6357567226
  C         0.9015031326        5.2164492635       28.5622024860
  S         6.4168281323       -2.4035535472       28.9179587317
  N         5.7856232835       -1.9847461883       30.3420213016
  C         5.3631886491        0.2330998358       31.5366348896
  H         4.9448969269        2.2962729738       32.1061498901
  H         7.4798746062        0.9777743853       20.7518351053
  H         8.0924350396        1.2126365021       19.1134932543
  C         6.4716294293        2.4940175245       19.7987411405
  H        10.5148592443        1.1233132750       19.6364055143
  H         9.9780330088        0.6557068808       21.2773082970
  C        11.4229769948        2.2830308547       21.1848531943
  H         9.9412262736        3.5153679534       18.0736975920
  C        10.1887443862        6.3726305556       17.4415052121
  H         0.4134164127        4.2754893806       28.7080321831
  H         0.1065317404        5.9719673944       28.3742697875
  C         1.7004451866        5.5929905405       29.9129553281
  C         5.1613509368       -0.4586522538       32.7483418530
  H         6.5414115606        3.1147875013       18.8638273145
  H         6.4179958041        3.2490527468       20.5758865663
  C         5.1920548917        1.7064821152       19.6467837113
  H        11.1859285148        2.7434403842       22.1993780807
  H        11.7040781049        3.0607614981       20.5458780646
  C        12.6933491474        1.4994888970       21.3591941154
  C        10.1759503130        7.7877854530       17.3875147564
  C        10.3630007220        5.5793864251       16.2115442115
  H         1.8468519568        6.7210987926       29.9646030242
  H         1.2037045391        5.3300058739       30.8095846989
  C         3.0726843680        4.9333335605       29.9766865289
  H         4.8929440014       -1.4701387441       32.5383233428
  C         4.9420817935       -0.0705050850       34.0458979734
  H         4.3103001218        2.3853302295       19.9797070445
  H         5.1340116868        0.8121635593       20.2559991348
  C         4.9868554678        1.2335611993       18.1671771133
  H        12.5339403637        0.7021804245       22.0895232799
  H        12.9521338984        1.0231899682       20.4160749891
  C        13.8834911509        2.5171802910       21.6648661399
  N        10.0399316404        8.6994605724       18.4411923476
  C        10.4124021781        8.4242514695       16.1538131687
  C        10.6357830318        6.3166954998       15.0473429213
  H        10.3055611498        4.5177278431       16.1650063082
  H         3.8243580215        5.3177674070       29.3035983224
  H         3.5166938894        4.9954792942       30.9561017555
  H         3.0245840882        3.8754310907       29.9290035880
  S         4.6938090453        1.5120005013       34.5955137952
  C         4.9341497905       -1.1481528676       35.0213902121
  H         5.1478364604        1.9960966739       17.4441463359
  H         5.7694064679        0.4588765949       17.9670902160
  C         3.5364778245        0.7915755267       17.9331185239
  H        13.5846312318        3.3101418612       22.3369194555
  H        14.1942760213        3.0023437403       20.7415652207
  C        15.0704059126        1.7546232158       22.2848345951
  S        10.1543393342       10.2137301416       17.8665026428
  N        10.4036282812        9.7872061619       16.3008806724
  C        10.7659914592        7.7898474054       14.9674586327
  H        10.5673142521        5.7613560948       14.1379200317
  C         4.5366246740        0.6978745072       36.1556971228
  N         4.7088290958       -0.6197672501       36.2315701628
  O         5.1110564123       -2.3199122926       34.7262824873
  H         3.4542387251        0.5102361450       16.9010772328
  H         2.8621286940        1.6648692616       18.0969849108
  C         3.1277655428       -0.3057370784       18.8635768835
  H        14.6938174761        0.9624036464       22.9200711969
  H        15.5727057026        1.1717870739       21.5278142574
  C        15.9185338931        2.6833721378       23.1605859313
  C        11.3190440747        8.5011654280       13.8109199867
  S         4.2961812209        1.4377559607       37.7136917675
  C         4.7721017939       -1.3732722297       37.5519264367
  H         4.0766734535       -0.7775288772       19.3293709899
  H         2.6554685043        0.2467284239       19.7065893554
  C         2.2766839056       -1.3728576412       18.3127041223
  H        15.2933340044        3.2690678194       23.8803880105
  H        16.1848809864        3.4459183918       22.4341813911
  C        17.1134067141        2.1050309985       23.9062774240
  H        11.1562469313        9.5518495783       13.9225361950
  C        11.7393797630        8.1181078155       12.6038660678
  H         4.1411485370       -0.9764752880       38.4235290740
  H         4.4805699831       -2.4230237500       37.3517093962
  C         6.2431002425       -1.3411832943       37.9687901018
  H         1.4564175575       -0.9649567569       17.7040830057
  H         1.7291213758       -1.8873416577       19.0687509761
  C         3.2262680505       -2.3408003749       17.4989987850
  H        17.5176179411        2.6334014187       24.7622941708
  H        16.9207578030        1.0159141873       24.2161601101
  C        18.3381829881        1.9478220636       23.0348806071
  S        12.0666035489        6.5403761941       12.0763712180
  C        11.7331252579        9.1330396418       11.5214150618
  H         6.7416794690       -0.7233529484       37.2154497756
  H         6.2762852847       -0.8727847395       38.9157616113
  H         6.5712812668       -2.3570848663       38.2658603503
  H         3.3586288374       -2.0519275842       16.4642753004
  H         2.9187586916       -3.3702270646       17.5711500095
  H         4.2010638405       -2.4712796995       17.8130934877
  H        18.6394466008        2.9724434315       22.6998900771
  H        18.0587777135        1.3198791761       22.1910831312
  H        19.1069292494        1.4214195506       23.5650842577
  C        12.5529151872        7.2998365212       10.5325484280
  N        12.3219705930        8.6269295106       10.4267822574
  O        11.4781561222       10.3523827947       11.6965243016
  S        13.0715493985        6.3831291243        9.1412468383
  C        12.4879569759        9.4887706173        9.2598265394
  H        12.5760375643       10.5432634722        9.5592749846
  H        13.4315260605        9.2545226208        8.7523619567
  C        11.2748188470        9.2240383697        8.3227431329
  H        10.4204141959        9.7977245163        8.6776302431
  H        11.4843489544        9.6512463024        7.4116839852
  H        11.0027357365        8.2302840856        8.2100941521
  H        21.0882766604       11.6923175735        3.5526773737
  C        21.6365957509       10.8509035650        3.1388854737
  H        20.9548346753        9.9441329772        3.1278499497
  C        22.9553452652       10.5049046046        3.9231004416
  C        21.9613940160       11.0573867266        1.6806899902
  C        22.9152161634       10.5369860681        5.4447015401
  H        23.2895449590        9.4562222732        3.6814114912
  H        23.7907163296       11.1071553499        3.4371603532
  H        23.0094663514       11.4283309696        1.6321209840
  H        21.3430064798       11.8114270444        1.1941539880
  H        21.8849988559       10.1932342419        1.0131280245
  C        22.0565971217        9.3867590964        6.0385464286
  H        23.9826706546       10.4509409033        5.6236224439
  H        22.7385229577       11.5679101030        5.8925974713
  C        21.0141360685        9.9522312538        7.0047259814
  H        22.7096455910        8.5887645345        6.4441590860
  H        21.5111328274        9.0039997873        5.2401640013
  C        19.6809052303       10.4283753577        6.3901491532
  H        21.4462533544       10.6250168024        7.7284613301
  H        20.7699943703        9.1272270917        7.6969326728
  C        18.6614758495       10.4346108586        7.4952009681
  H        19.8297251711       11.3927100646        5.9985552333
  H        19.3632161122        9.6414438329        5.6067243561
  C        17.3593726882       11.2317796462        7.1270380993
  H        19.1527887625       10.9437168899        8.3509651031
  H        18.3724314640        9.4230949939        7.7817565511
  C        17.5754888211       12.5850802414        6.4406488715
  C        16.8104356236       11.8978524578        8.3186383260
  C        16.3020208554       10.4047068786        6.3759802665
  C        17.1569760193       13.6506674274        7.1571661735
  C        18.0345102786       12.8874495548        5.1499500339
  C        16.7021260744       13.2458965295        8.3774010433
  C        16.3156508736       11.2931527132        9.3936060194
  H        16.5471607195       10.1747131765        5.3259901506
  H        15.9350599217        9.5614140769        6.8589310323
  C        14.9631123008       11.1773710368        6.2423996943
  S        17.2673618830       15.1248155770        6.3151796249
  C        17.9975760114       14.2276666922        4.9707375739
  H        18.3796457276       12.1411339894        4.4643390715
  C        16.1423919723       13.7835552927        9.5106913487
  H        16.3852055481       10.2179905107        9.4377400445
  C        15.7711314778       11.8259289333       10.5307612312
  H        15.2976625256       12.1058378591        5.7796710951
  H        14.5970225317       11.5355820195        7.1800578948
  C        13.8138716614       10.3744874966        5.5663816832
  C        18.3488506158       14.9069770731        3.6791625576
  C        15.7322985205       13.1773217569       10.6081337017
  H        16.0112792374       14.8402839947        9.4614864345
  C        15.3395880635       11.3115142322       11.7802975772
  H        12.9429890200       10.9450871173        5.7849397889
  H        13.6606633275        9.4706333771        6.1062541119
  C        14.0335827538       10.1683791261        4.0598975338
  C        18.2820682530       16.3240529582        3.4415391668
  C        18.7839621922       14.0617753749        2.5273057682
  C        15.2809106278       13.7851763984       11.8567945957
  C        15.0128432260       12.3769665153       12.6161618101
  S        15.2049605504        9.7819246820       12.4524123140
  H        14.4009931961        9.1964936562        3.9572463900
  H        14.7047167645       10.9917051274        3.7761180776
  C        12.6564326431       10.2834026439        3.2828324794
  N        17.9827885588       17.3394904250        4.3000780164
  C        18.5691245271       16.8111741950        2.1592361511
  C        18.9888088094       14.5866951824        1.2821347921
  H        18.9821839201       13.0171493895        2.6241295689
  C        13.9328902209       14.6315208636       11.6546848651
  C        16.4292058904       14.6127913468       12.5228726840
  C        14.6415495644       11.9023274860       13.8621013689
  C        14.6750705312       10.5297732824       13.9283131176
  H        11.9665145288        9.5782625202        3.6290276571
  H        12.1642764726       11.2610219653        3.4711504511
  C        12.7152483879       10.0309343764        1.7021051173
  S        17.8519403704       18.7187539286        3.5021762459
  N        18.5735697735       18.1827150823        2.0875867941
  C        18.9083145291       16.0515853751        1.0603286156
  H        19.1134582398       13.9087532583        0.5425301072
  H        14.1767524568       15.4115060227       10.9138660050
  H        13.7772355040       15.1253092299       12.6021741702
  C        12.7936820714       13.6978393591       11.2022382494
  H        16.8126973631       15.4504033981       11.9530305946
  H        16.0217603630       15.0388221525       13.4033539992
  C        17.6200881829       13.7907852806       13.0023246712
  H        14.5227092025       12.6107085931       14.7425657460
  C        14.4193163926        9.7850020609       15.2311843339
  H        11.7771204861       10.5189766588        1.3677022964
  H        12.6634608295        8.9095492042        1.5193263116
  C        14.0949726965       10.4388984108        1.0747261106
  C        19.1976533571       16.5544771771       -0.2523541408
  H        12.9173416989       13.2016961876       10.2655638763
  H        12.6370069184       12.9671616563       12.0549495368
  C        11.4985871958       14.5084954183       11.2097462891
  H        17.7639687109       12.9204835375       12.3758698001
  H        17.3625493650       13.3582928950       13.9192572928
  C        18.9761767985       14.4839495870       13.1856621929
  C        14.4054832221        8.3998757902       15.2625682840
  C        14.2435642195       10.5252483377       16.5386818075
  H        14.4060182757       11.3458338834        1.5841973736
  H        14.8960505051        9.7122304678        1.3795468237
  C        13.9964469929       10.5987531537       -0.4513962708
  H        18.8297302645       17.5951876206       -0.3789810214
  C        19.5231561265       16.0616792373       -1.5093587819
  H        11.5257838227       15.5122733908       10.8951368954
  H        11.0765599721       14.6676429077       12.2208072761
  C        10.4188871384       13.6992946906       10.4193727437
  H        19.3434456892       14.7813346583       12.2252014392
  H        18.6170025757       15.4070739029       13.6560383852
  C        19.9945397487       13.6492229593       13.9420514612
  N        14.6020128648        7.4399382114       14.2055878701
  C        14.1091694042        7.7527161931       16.4465223599
  C        13.9899359740        9.8335060992       17.7012974309
  H        14.2249246849       11.6271759629       16.5427236824
  H        14.8949450170       10.4451940355       -1.0321773541
  H        13.7506089070       11.6316314528       -0.6698974850
  H        13.2281167504        9.9065601432       -0.8232160537
  S        19.9377266402       14.4139187537       -1.8137260461
  C        19.6088273270       16.9821004773       -2.6585638895
  H        10.6864779664       13.6013903569        9.3276018388
  H        10.4845357387       12.7319941179       10.8911321974
  C         9.0211218678       14.3105993900       10.5614048103
  H        20.0344489510       12.6540461995       13.5396356252
  H        19.6018489502       13.5438434673       14.9221044093
  C        21.3720231339       14.2804211358       14.0328570808
  S        14.3442593970        5.9593343916       14.8130545277
  N        13.8832525971        6.3747848026       16.2849232563
  C        13.8175092346        8.3955064607       17.6917347789
  H        13.8506836993       10.4011458396       18.6174519284
  C        20.1970508512       14.9454377451       -3.4679436798
  N        20.1390579756       16.2874100812       -3.7304562351
  O        19.3881363367       18.2328077081       -2.6321885707
  H         8.5618431489       14.1407110579       11.4603146236
  H         9.1909070522       15.3664621611       10.5437126397
  C         8.2100518922       13.9221693611        9.4009276899
  H        22.1246497674       13.5012504720       14.3522226004
  H        21.7353300884       14.4816141458       13.0394857863
  C        21.5149627799       15.4969779264       15.0409049510
  C        13.4615098432        7.6285151535       18.8812746970
  S        20.7457084983       13.9929606494       -4.8044574130
  C        20.2692909360       16.9781697311       -5.0180788942
  H         8.6023362942       14.5228447235        8.5578965268
  H         8.3393175448       12.8726425404        9.1904545690
  C         6.6664237724       14.1206742979        9.3595435991
  H        21.8516319683       15.0703308680       15.9723979753
  H        20.5205576262       15.9316633129       15.2097234883
  C        22.5381269237       16.6220734740       14.6463845022
  H        13.4014936243        6.6026643681       18.6807349134
  C        13.0056559417        7.9173269385       20.1543128896
  H        20.9784958739       16.5098099389       -5.6553313407
  H        20.7793610831       17.9105731321       -4.7237339856
  C        18.9158291119       17.1694325301       -5.6477513770
  H         6.1491771880       13.5555411846        8.6207901807
  H         6.5339913122       15.1472369994        8.9896821647
  C         6.0897569697       13.9942436171       10.7445848794
  H        23.5959141774       16.3454023152       14.4124854574
  H        22.1304001722       17.2475849286       13.7852346525
  C        22.5769191104       17.5936131152       15.7517662115
  S        12.4598065885        9.3667204333       20.6716696623
  C        12.9998803573        6.8105987483       21.1452676244
  H        18.3003919795       16.3052323609       -5.5997034725
  H        19.0115819025       17.5069047406       -6.6796020328
  H        18.3074699142       17.9294033592       -5.1194314797
  H         5.0078450554       13.9520932046       10.6928955262
  H         6.4028695516       13.0546792293       11.3014267194
  H         6.3469260204       14.8161148237       11.3122110017
  H        22.6881700281       17.1334228501       16.7172098652
  H        23.3914015120       18.3176277739       15.6616456802
  H        21.6329413610       18.1029355770       15.6721158052
  C        12.2173082795        8.6341170528       22.2646695967
  N        12.5281530463        7.3205798706       22.2933828371
  O        13.0552294542        5.6558135441       20.7785796633
  S        11.4042974071        9.4041862450       23.6680306349
  C        12.3234735755        6.4742278987       23.4514625257
  H        12.3831038718        5.4060088783       23.2951523991
  H        11.3601370335        6.6548320705       23.9799128029
  C        13.2611962569        6.8339093525       24.6205213131
  H        12.7081043327        7.3776857800       25.3395471251
  H        14.0909403050        7.4162376576       24.1820887933
  H        13.7507338889        5.9162995028       24.9083946264
