352
 i =    92900, time =    92900.000, E =        25.1899202927
  H        10.6583647875        7.1317892616       32.2253645027
  C        11.7364635318        6.7434901176       32.0928317758
  H        12.4246542226        7.6294087456       32.2508933466
  C        11.8076454455        6.1980787274       30.6614257587
  C        12.2256599930        5.7707870556       33.1419394260
  C        10.6991242354        5.2118980910       30.4199058735
  H        11.7575042510        6.9593720560       29.9312962958
  H        12.7400312018        5.6302729586       30.5073305353
  H        13.2193285262        5.3866313997       33.1054889474
  H        12.0867722988        6.4610234406       33.9926723534
  H        11.4748302647        5.0538117765       33.3654578297
  C         9.6460295831        5.6927880009       29.3969622633
  H        10.2555574439        4.9563217979       31.3461281483
  H        11.1852554987        4.2574636251       30.1107828395
  C        10.0766558758        5.9053264885       27.9390376949
  H         8.7295286569        5.0541491817       29.4613599615
  H         9.4306519864        6.6498176653       29.7244914736
  C         9.3282625656        5.1334192863       26.8854464154
  H        11.1179725090        5.7231737085       27.7189592988
  H         9.8790172060        6.9348333491       27.8443874166
  C         8.0624569875        5.7506511024       26.2888371693
  H        10.0423379278        4.8571380645       26.1301100157
  H         8.9015702227        4.2132990956       27.3513873925
  C         7.1845092753        4.9228539380       25.3400402263
  H         7.4739691048        6.0016535021       27.1316101269
  H         8.3972668626        6.7153102794       25.8979626674
  C         6.8338212173        3.5643018839       25.9465000425
  C         7.8519274499        4.1683305118       24.1853197231
  C         5.8054358796        5.6535895892       24.9323298195
  C         7.1871639306        2.4587239527       25.1733556402
  C         6.3242124425        3.1713135039       27.1833221073
  C         7.8393665181        2.8322982342       24.0181170942
  C         8.4153426932        4.8922716810       23.0544044248
  H         5.3489203180        4.9045963193       24.3044275590
  H         6.0100898692        6.5064473727       24.3546384731
  C         4.7881646678        5.9841595356       26.0506084274
  S         6.8410320954        0.9673313218       25.9903561405
  C         6.2129962360        1.8083066796       27.2989224103
  H         6.1801255632        3.9053572315       28.0213864279
  C         8.3984756478        2.2614747238       22.8861239236
  H         8.2484679859        5.9461250933       23.0745717700
  C         8.9751430029        4.3039782141       21.9367608989
  H         4.7679723636        5.1289774181       26.6985903866
  H         5.1483786664        6.7658675274       26.6992928558
  C         3.3274287950        6.3159818826       25.5993217261
  C         5.9128898656        1.1688104225       28.5870866273
  C         8.9570413878        2.9589030665       21.8005024400
  H         8.3335349458        1.1547773072       22.8531005165
  C         9.4254015572        4.7133695539       20.7148242854
  H         3.0311841383        5.5485917347       24.9430982649
  H         3.2940947199        7.2232699429       24.8545650520
  C         2.3611026471        6.4404802908       26.7916173986
  C         6.0619949936       -0.2237577392       28.8453489800
  C         5.4202213587        2.0126543557       29.7013070922
  C         9.3980409227        2.3126285616       20.5370792333
  C         9.7201820837        3.6568316860       19.8844971375
  S         9.4926882100        6.2582996630       19.9829057061
  H         1.3983881496        6.7250883896       26.4536482248
  H         2.6623450359        7.2657538963       27.4908581533
  C         2.0765575061        5.1909704800       27.6144847872
  N         6.3047343758       -1.1887143555       27.8939172167
  C         5.8801526971       -0.7670320747       30.1084145848
  C         5.1878182244        1.4241495098       30.9865636618
  H         5.3214184169        3.0967971153       29.6450151353
  C         8.3255123800        1.5003515509       19.7634344028
  C        10.7239581285        1.4620610906       20.6080230550
  C        10.0512360545        4.1304380569       18.6091469749
  C        10.0083326549        5.4622645314       18.5183389701
  H         2.0654212695        4.3826490399       26.8209922226
  H         2.8972547251        5.0253723678       28.2768079237
  C         0.7699040828        5.2499706238       28.5318443233
  S         6.4482679837       -2.6501717440       28.5766815143
  N         6.1104983540       -2.1895618348       30.1148168648
  C         5.3255803304       -0.0150526853       31.2061679051
  H         5.0150782429        2.0653321537       31.8480070015
  H         8.1209756008        0.5901149989       20.2513380171
  H         8.6326625306        1.3603270082       18.7793502119
  C         7.0154110331        2.2782821211       19.6124887286
  H        11.0197527007        1.2165825367       19.5762076147
  H        10.5286016556        0.4646027267       21.1207336269
  C        11.8262741534        2.2561303065       21.3902618740
  H        10.3502012558        3.4103324473       17.7675662553
  C        10.3365160447        6.1600512287       17.2187864345
  H         0.3192602193        4.2446177410       28.7086786589
  H        -0.0400289038        5.8785778180       28.0508068917
  C         1.1282893726        6.0282267470       29.7973819339
  C         5.1053496745       -0.7345936019       32.4472935957
  H         7.1006412922        3.3152955165       19.1185295974
  H         6.6491845225        2.3203282991       20.5799233854
  C         6.0211024092        1.5354207833       18.7083793942
  H        11.5203853401        2.8128957799       22.2223841046
  H        12.1936887770        3.0771108926       20.7258403444
  C        12.9974214822        1.3524449643       21.8040108945
  C        10.2468835117        7.5970638143       17.0640285621
  C        10.6843999972        5.3674636447       15.9787455124
  H         1.7136003610        6.8607196928       29.5285159870
  H         0.1600986627        6.4209670869       30.1992849271
  C         1.9099520916        5.1979908561       30.8928110293
  H         5.1204855881       -1.8085474424       32.2072337983
  C         4.8435661443       -0.2950128204       33.7349671815
  H         6.4247067365        0.5101826925       18.4109466155
  H         6.0544803521        2.0864618529       17.7340994649
  C         4.6396804287        1.3801082231       19.2822246193
  H        12.6835146012        0.6927438210       22.6105002620
  H        13.3509944820        0.6926176757       20.9869861032
  C        14.1528884567        2.1892379674       22.1046321474
  N         9.9137274139        8.5245135965       18.0401813361
  C        10.4563692110        8.2115606327       15.7950670844
  C        10.9160642700        6.0229228715       14.7776297675
  H        10.7076934512        4.2886689104       16.0363858454
  H         1.9471578510        5.8133489619       31.8517025050
  H         1.3620944788        4.3419301917       31.3030567434
  H         2.9271183847        4.9681732811       30.5079064487
  S         4.7552144143        1.2996526314       34.2680992355
  C         4.8254426316       -1.3304243371       34.8737294846
  H         4.5344534946        2.1071362675       20.0969748791
  H         3.8164001050        1.5136063790       18.6033902591
  C         4.2691657960        0.0074355258       19.7663777615
  H        13.8577390225        3.1377595835       22.4883146372
  H        14.5739203089        2.3959100596       21.1753112699
  C        15.1610798375        1.4454046754       22.9555864440
  S         9.9409717192       10.0240633543       17.5197473512
  N        10.1326085331        9.6053134080       15.9382843015
  C        10.8268629876        7.5305919391       14.6473223741
  H        11.1601272256        5.5013931723       13.8604126103
  C         4.5574762244        0.6310969511       35.9408466462
  N         4.6543358754       -0.7219721203       36.0421868755
  O         4.9635476857       -2.4948932921       34.5627467688
  H         3.4609456999        0.0109032732       20.5032728110
  H         5.0660420423       -0.2954132434       20.3777171423
  C         4.0067564745       -1.2476934006       18.8584711248
  H        14.7195849707        0.9607600562       23.8385276694
  H        15.7061105305        0.6131093808       22.3870516492
  C        16.1299123455        2.4440084644       23.5044165654
  C        10.9039529388        8.2899665107       13.4086439569
  S         4.2124856883        1.5077886178       37.4180637792
  C         4.6748707036       -1.4444383417       37.4031557331
  H         4.8115175382       -1.5675162879       18.2432731612
  H         3.9456732728       -2.1172301135       19.4496213636
  C         2.7279229903       -1.0829319565       17.9430375599
  H        15.5912364641        3.0939029955       24.2332364849
  H        16.4187091216        3.1817794112       22.7196866938
  C        17.2509472749        1.7883800101       24.2106343358
  H        10.4630855109        9.2592200073       13.3921696263
  C        11.4274333380        8.0819584107       12.2545450777
  H         4.0130470844       -0.9923932843       38.2889759221
  H         4.4460256705       -2.4323467457       37.0880319788
  C         6.1255253504       -1.3683655227       37.9040793542
  H         2.6475590933       -0.0210077967       17.8125649228
  H         1.8878049326       -1.5406303443       18.5776144381
  C         2.9156185924       -1.6926662127       16.6044056225
  H        17.6657346393        2.4703550404       24.8914733670
  H        16.9863910050        0.8782246993       24.7729911246
  C        18.2939312049        1.3677318377       23.1594209789
  S        12.1697778110        6.6109749139       11.8012008064
  C        11.3600911404        9.1884288625       11.2258902316
  H         6.6898349306       -0.7190055482       37.2220883936
  H         6.2112841249       -1.0509366580       38.9842368797
  H         6.5471919828       -2.3773858646       37.7545074888
  H         3.1348164836       -2.8120534406       16.7646703183
  H         3.7758453214       -1.2156825156       16.1412912268
  H         1.9348350330       -1.6271176480       16.1073744503
  H        19.1352249609        0.7352387769       23.5326724581
  H        18.6919803406        2.3751596914       23.0312201493
  H        17.9435763114        1.0275916958       22.1780849129
  C        12.2958570421        7.3852314844       10.1563641759
  N        11.9246350470        8.7090830548       10.1248817946
  O        10.9414185179       10.3826156977       11.3671874868
  S        13.2444283951        6.8243273134        8.8008880412
  C        11.9819859827        9.4885260978        8.8688643334
  H        11.8499004527       10.4656418741        9.1865003103
  H        12.9446574454        9.4830163084        8.4047510893
  C        10.9406009281        9.0980725734        7.8501574888
  H        10.5572822144       10.0320000138        7.3758721405
  H        11.3559160001        8.4645561939        7.0119350322
  H        10.0732788535        8.6091832445        8.3877340981
  H        21.5632918787       11.0355600031        3.4028137221
  C        22.1482724460       10.1089950389        3.1853390315
  H        21.3827732449        9.3280929499        3.2237176175
  C        23.2192618548        9.9168511588        4.3521738450
  C        22.7772450060       10.0701920834        1.7615243191
  C        22.5783791531       10.0774752155        5.7528097585
  H        23.6319400595        8.8662526913        4.4081728995
  H        24.0979358702       10.5231531817        4.2966178660
  H        23.3156385165        9.1857120555        1.4733926154
  H        23.4275317850       10.8531393207        1.6301695566
  H        21.9938031147       10.2620789359        1.0444710072
  C        21.7783887216        8.8755082111        6.2299281348
  H        23.2289834974       10.3219901276        6.4824806533
  H        21.8980682174       10.9371036366        5.5501167353
  C        20.7543078095        9.1404159339        7.3034174847
  H        22.3770304527        8.1645911927        6.6768447112
  H        21.2968864685        8.4172083439        5.3751025828
  C        19.3528525823        9.4068972397        6.6721570714
  H        21.0971524956        9.9388348570        7.9936451184
  H        20.7955644770        8.2305298789        7.9294125776
  C        18.3047455733        9.7742580215        7.6701406276
  H        19.5836719006       10.1618623876        5.9982722639
  H        19.0887563079        8.5684368429        6.0505592162
  C        17.0952038019       10.6614940943        7.2635286113
  H        18.8251126828       10.2455175986        8.4435986612
  H        18.0298133386        8.8907390212        8.1255389177
  C        17.3656701498       11.9532782727        6.5498567186
  C        16.6280248705       11.4172574012        8.4609524595
  C        15.9124177671        9.8675526255        6.5098385398
  C        17.0017483037       13.0973011528        7.2698458280
  C        17.7677130223       12.2513538157        5.2027815032
  C        16.5678298805       12.7738964976        8.5435971329
  C        16.1295667533       10.7224084839        9.5743030807
  H        16.2577915703        9.2849391291        5.6957512810
  H        15.5772504185        9.0300632333        7.1350568652
  C        14.6940864112       10.6172367176        6.1432255894
  S        17.2407867103       14.5890052428        6.3295881337
  C        17.7944504438       13.5991764714        4.9952672411
  H        18.0396584753       11.4115871504        4.5755741962
  C        16.1947339722       13.3819846277        9.6971385243
  H        16.1654233693        9.6673157935        9.4852365380
  C        15.7726820141       11.2962430061       10.7329963366
  H        14.9473740050       11.6619474700        5.8413967278
  H        14.1830977473       10.7741045953        7.0359403741
  C        13.7514361521        9.9806402192        5.0842939699
  C        18.0338987981       14.2798462071        3.6723837458
  C        15.8250946558       12.6738512402       10.8358781123
  H        16.0024017345       14.4271768175        9.6979783146
  C        15.2558806551       10.9432222422       11.9574258051
  H        12.7900150662       10.5919840469        5.1424250024
  H        13.4541943379        8.9402501881        5.3400155559
  C        14.2354108478       10.1408387528        3.5947920082
  C        18.1768039142       15.6424057310        3.4054869335
  C        18.2184531422       13.3404708207        2.5126345846
  C        15.3547254651       13.3393538374       12.1197712025
  C        14.9952736505       12.0329365949       12.7898801421
  S        14.9074034836        9.4732380702       12.7715423264
  H        15.0176257757        9.4697284251        3.3854416024
  H        14.6134054948       11.1731246986        3.4269923274
  C        13.0578552924       10.0110734715        2.5953117579
  N        17.9910070316       16.6590724875        4.3098666140
  C        18.4400826334       16.1155456782        2.1157296218
  C        18.6873929096       13.8343387499        1.2328344167
  H        18.2333435297       12.3011706231        2.6625563314
  C        14.1982273728       14.3221755847       11.9576480448
  C        16.5219041078       14.0021038138       12.9007429345
  C        14.5161556323       11.6574268716       14.0328500633
  C        14.4509142415       10.2657832630       14.1964786144
  H        12.4886886850        9.1763077212        2.9729705722
  H        12.3506537076       10.8107227245        2.5825204001
  C        13.6102522032        9.8659828607        1.1506845568
  S        18.0025952780       18.1014998233        3.5173236394
  N        18.4048996051       17.5011707056        2.0635734653
  C        18.7577572246       15.2811431758        0.9846781216
  H        18.8734641053       13.2223065848        0.4082039677
  H        14.7199800162       15.2985169965       11.6205954204
  H        13.7974693496       14.4417536886       12.9563421219
  C        13.1595537950       13.9160528281       10.9674956016
  H        16.8494625643       14.8150139455       12.1858597337
  H        16.2414262718       14.3303860306       13.8635796944
  C        17.7037837141       13.1510454721       13.3213772964
  H        14.3197384601       12.3629560838       14.7993558498
  C        14.0872998559        9.4519713438       15.4817327274
  H        14.3374276599        9.0075991254        1.1138958723
  H        14.2669019713       10.7179724966        0.9000120018
  C        12.5223041161        9.7618575917        0.0614352498
  C        19.0303846196       15.9791942248       -0.2221897264
  H        13.1314120724       14.5278466761       10.1070372575
  H        13.2950253574       12.8751647551       10.6678495454
  C        11.7990898934       13.9625203026       11.5612594428
  H        17.9751670208       12.4361137294       12.5518310902
  H        17.3305546975       12.5770413332       14.1819039678
  C        18.9353004603       13.9541467680       13.7056188044
  C        14.2307993626        8.0774281646       15.6470505999
  C        13.7374659420       10.2953018838       16.6799619217
  H        12.0098426877        8.7918273768       -0.0202364678
  H        11.7480097079       10.4079661519        0.4081923703
  C        12.9136452376       10.2245208160       -1.3853828270
  H        18.8815585723       16.9707956223       -0.1677534577
  C        19.4275825746       15.6465171455       -1.4913386359
  H        11.7773115550       14.8295911738       12.2291992856
  H        11.6396575417       13.1060938006       12.2152215683
  C        10.7294807814       13.9619590764       10.4721758686
  H        18.8737966482       14.9674346425       13.3383735534
  H        18.8724652054       14.1492162333       14.7571214351
  C        20.2005954745       13.2623961299       13.2977459233
  N        14.5913434154        7.1488870641       14.5965167779
  C        13.9308439116        7.3918100230       16.8083948014
  C        13.5239173297        9.6274026501       17.8747928540
  H        13.6185856281       11.3424718567       16.6272944687
  H        13.3152462976       11.2629078864       -1.4768307089
  H        12.0527643934       10.0259794992       -2.0949013684
  H        13.6920906876        9.5110057819       -1.7374822130
  S        19.7618028323       14.0218166993       -2.0212820438
  C        19.4898294267       16.6965161437       -2.5755467943
  H        10.5835922258       14.8645221992        9.8370330682
  H        10.9223008385       13.1380739890        9.8881512901
  C         9.4296709990       13.5563461203       11.1941549044
  H        20.2966924542       13.2703649070       12.2134334455
  H        20.1799220056       12.2234724105       13.5920539814
  C        21.4172619107       13.9359926910       13.8915911375
  S        14.5999620483        5.6135999995       15.2442400940
  N        14.1315141894        5.9879684260       16.7553697882
  C        13.6521607397        8.1774296416       17.9924446582
  H        13.2579356043       10.1915459084       18.7475773742
  C        20.1225222232       14.7622258275       -3.5678968055
  N        19.8879638074       16.0870270476       -3.7383943365
  O        19.2753073470       17.9268724985       -2.3821508816
  H         9.3182567420       12.4830406612       11.2318001063
  H         9.3875631778       13.8315606305       12.1882665139
  C         8.2470531606       14.1320620395       10.4004283605
  H        21.2292774672       14.0112051413       14.9602454893
  H        22.2228548932       13.2586509936       13.6811036041
  C        21.7726910636       15.2908046807       13.4247523520
  C        13.3059901887        7.5776841581       19.1842676252
  S        20.4870319664       13.8404187669       -4.9791848582
  C        20.1437683360       16.7326238007       -5.0453592480
  H         7.6377668593       14.9384962219       10.9710454212
  H         8.5575502493       14.4162597455        9.3379510584
  C         7.2462726594       12.9835006474       10.2024163148
  H        21.2382317024       15.4310190433       12.4563317521
  H        22.8469882769       15.3643777223       13.1477858570
  C        21.2973852395       16.4164840482       14.3110971785
  H        13.5328844132        6.5871286600       19.1248941285
  C        12.6681819402        7.8192479960       20.3715940218
  H        21.0069688844       16.3433798309       -5.5678652069
  H        20.4385418037       17.7805134083       -4.8362738282
  C        18.7776924770       16.6500841540       -5.7523770239
  H         6.8774952008       12.5771035727       11.1592945777
  H         7.6143886576       12.1518499481        9.6284009269
  C         6.0622474913       13.5963866918        9.4808116946
  H        21.0345846877       17.2777935464       13.7189405190
  H        20.3980874010       16.0036207928       14.7482359388
  C        22.3342702681       16.6762566770       15.3892658546
  S        11.8979386858        9.2106664375       20.7768240785
  C        12.5577363776        6.6900007301       21.3648524686
  H        17.9138465058       16.7174172014       -5.0825738172
  H        18.6838334255       15.7461943839       -6.2113038436
  H        18.6903047464       17.3592000332       -6.4892880189
  H         5.8083996165       12.7907558812        8.8730662498
  H         5.1997305705       13.7641751445       10.0681177873
  H         6.2688451963       14.4281174231        8.7935827625
  H        22.6233065744       15.7086498162       15.7387992597
  H        23.1303701107       17.3406200429       14.9952315067
  H        21.8996982214       17.1944410161       16.2293131332
  C        11.4146146637        8.3236342163       22.2522629893
  N        11.8808846145        7.0553745291       22.5014458701
  O        13.0742284665        5.6008758256       21.1354650825
  S        10.3707217905        9.0267343594       23.5435061132
  C        11.6434009106        6.1330340759       23.6817379522
  H        11.9244278165        5.1410051504       23.3517212047
  H        10.6570445527        6.0775790865       24.0451535610
  C        12.4431405528        6.6272985471       24.8853885995
  H        12.3931700904        5.7367917468       25.4826190730
  H        11.8856741186        7.4107332496       25.4217183119
  H        13.4840435926        6.8889262431       24.5923335817
