352
 i =    53000, time =    53000.000, E =        24.8660741060
  H        12.2273953293        4.8691853846       31.8421373508
  C        11.1991985789        5.2253622807       31.9549748477
  H        10.3602569670        4.5552539365       31.7574024490
  C        11.0329461931        6.2942084675       30.9890609957
  C        11.0092079828        5.7273567725       33.4025389582
  C        11.3736728803        5.9162397549       29.5671083051
  H        10.0279330694        6.6951796777       31.1243065940
  H        11.7619544791        7.0147678446       31.2764238361
  H         9.9243836691        5.8951979884       33.5915415426
  H        11.4143653241        4.9765462878       34.0796057886
  H        11.6700617811        6.5126783239       33.6730978125
  C        10.1480176756        5.7041246825       28.6445811410
  H        12.0388662095        4.9900298786       29.7271644603
  H        11.9988030019        6.6687124360       29.1329957722
  C        10.5017863884        5.5188915750       27.1306211418
  H         9.5550533586        4.8446265331       28.9785450093
  H         9.4147049744        6.5628822849       28.8603173287
  C         9.3777908736        4.9252785745       26.2104359199
  H        11.3639195698        4.8911439790       27.0387222475
  H        10.7622987209        6.4950625382       26.8172197881
  C         8.1198814906        5.7761073947       25.9254289193
  H         9.7006749256        4.5349411784       25.2718132608
  H         8.9030658658        4.0460510791       26.7244412362
  C         6.9947204880        5.0764819274       25.1944969096
  H         7.7883235691        6.2598235745       26.8452157465
  H         8.3651411016        6.7147746720       25.4356232461
  C         6.6934672316        3.6876881103       25.8086699730
  C         7.4350715991        4.3023921502       23.9356899126
  C         5.7951627870        5.9660309953       25.0017927012
  C         6.8847356217        2.5445369413       25.0529200821
  C         6.1695541504        3.4051657133       27.0551342883
  C         7.4530304601        2.9035195103       23.8583871226
  C         7.8666129793        4.9248604249       22.8254363721
  H         6.0989879996        6.8107698747       24.3785021575
  H         5.6188694374        6.4676198344       25.9378417675
  C         4.4452075181        5.3104571051       24.5660196240
  S         6.5721522461        1.1146517873       25.8508976166
  C         6.1317776481        2.0655459112       27.2807187224
  H         6.0265697642        4.2661341672       27.7289338394
  C         7.8379599126        2.3062598634       22.6965895774
  H         7.9047895358        6.0302887048       22.8080943981
  C         8.4566901302        4.3160275199       21.7628799005
  H         4.5802067277        5.0807449391       23.5023508467
  H         4.1712315236        4.3150714698       25.0114458019
  C         3.2834600377        6.2306614590       24.6952372325
  C         5.7439382499        1.4401647856       28.6015428883
  C         8.4361121916        2.9456682291       21.5917917479
  H         7.7096555255        1.2250779983       22.5454738713
  C         8.9323137029        4.7015095957       20.4824666248
  H         2.4790474750        5.9668153271       23.9458150222
  H         3.7605742174        7.2007085132       24.4216495051
  C         2.5373482160        6.4885593927       25.9544608795
  C         5.9323932832        0.0902552639       28.9415915595
  C         5.1239251069        2.3115315774       29.6748557946
  C         8.8200699468        2.2737587287       20.3148585287
  C         9.1407567272        3.6332944544       19.6195469091
  S         9.1542195726        6.2189334337       19.6919947478
  H         1.8525151735        7.2671731314       25.8943749548
  H         3.3276770607        6.8233944007       26.6967308437
  C         1.7542967669        5.3097117016       26.4849111528
  N         6.4143958427       -0.8765560357       28.0769081130
  C         5.6439662633       -0.4071971207       30.1927277807
  C         4.9095607090        1.8384880945       30.9240634921
  H         4.9170830484        3.3340647752       29.5223270632
  C         7.6966534893        1.5052332070       19.5840132439
  C        10.1469570295        1.4969490421       20.4427114960
  C         9.6151278495        4.0022767422       18.3417763583
  C         9.5445398799        5.3914350715       18.2209664304
  H         0.9022628759        5.1673822076       25.8104934090
  H         2.3722874187        4.4882602983       26.5140226879
  C         1.1764182270        5.4896358792       27.8895325202
  S         6.6014615728       -2.2639776751       28.9264058801
  N         5.8495931382       -1.7608613236       30.3025122253
  C         5.2432162278        0.3787291628       31.2973878809
  H         4.5272878417        2.5981405533       31.6285132075
  H         7.2898856535        0.6426238061       20.1975860063
  H         8.1883935292        1.0659316495       18.7160562187
  C         6.5041373606        2.3017549460       19.1103555084
  H        10.5108648477        1.2840502403       19.3952970630
  H         9.8814768439        0.5627655943       20.8814945884
  C        11.2222472258        2.2817898062       21.1680138666
  H        10.0019230861        3.2759351799       17.6337538516
  C         9.9652054467        6.1427592923       16.9850564453
  H         0.7199179072        4.5686023599       28.3075257806
  H         0.4049666038        6.2406184078       27.8214293659
  C         2.2904551253        5.8524655327       28.8932169343
  C         5.0625083220       -0.2253546923       32.5617820050
  H         6.9261011681        2.8927204117       18.2736245885
  H         6.1802767120        3.1010174303       19.7390976864
  C         5.3460175947        1.4950543950       18.4027993959
  H        10.9830961272        2.3210451665       22.2140354663
  H        11.3453615068        3.2620062074       20.8472937108
  C        12.4973674559        1.5471454418       21.0818584894
  C         9.9127713847        7.5883501958       16.9195761496
  C        10.1854028286        5.3935613944       15.6985587739
  H         3.0811216364        5.0957747536       28.8363699651
  H         2.7419511443        6.8461755136       28.7980809879
  C         1.5734446658        5.8373706201       30.2627100424
  H         5.0573122130       -1.2900337656       32.5191397906
  C         4.7935370570        0.3021035080       33.8115503874
  H         4.6888506235        0.9555404007       19.1171952534
  H         5.8002874373        0.7280268059       17.7790108068
  C         4.5190656173        2.4476298682       17.6097088014
  H        12.6610489082        0.9626732295       22.0212888241
  H        12.4282155556        0.8286952941       20.2067967674
  C        13.6840653274        2.4095115726       20.6721654473
  N         9.6749548910        8.4434655439       17.9901620144
  C        10.3009655383        8.2599014076       15.7520490592
  C        10.4440804396        6.1408277873       14.4974685292
  H         9.9698213674        4.3708306287       15.5883672111
  H         2.1885840710        6.3658268569       31.0305399411
  H         0.6114267225        6.4016176776       30.1887329545
  H         1.4113168447        4.8554180804       30.6353489415
  S         4.5090701730        1.8762643383       34.3544919566
  C         4.6654696636       -0.7671693934       34.9164805393
  H         4.4362316006        3.4074520713       18.0596162350
  H         5.0507239580        2.6079944816       16.6640457435
  C         3.1362548446        1.9640507536       17.3383204724
  H        13.4753670472        3.3021553559       20.0444842606
  H        14.2905850172        1.8395203008       19.9486165147
  C        14.5777420438        2.8480197075       21.8905827810
  S         9.7036965640       10.0271465819       17.4363348861
  N        10.1999079359        9.6591215216       15.9322489058
  C        10.6401704966        7.6572223534       14.5039560085
  H        10.5964290491        5.6178550712       13.5276215110
  C         4.3782487067        1.1612942305       36.0124125558
  N         4.4117907339       -0.1743774697       36.0887867087
  O         4.5321989781       -1.9660108809       34.6334920368
  H         2.7164621991        2.6653160410       16.6426639368
  H         2.6959010466        1.9984669525       18.3324713626
  C         3.0369067670        0.5805339632       16.6988070282
  H        15.0999488905        3.7548858784       21.6269690141
  H        13.9786021910        3.2324513279       22.7177859347
  C        15.4712725935        1.7229722244       22.3688196647
  C        11.0042648773        8.5660256955       13.4712179622
  S         3.9383246115        2.1238869048       37.4083744689
  C         4.1854691383       -0.9440940564       37.3292477400
  H         2.3194476733        0.7524232149       15.8713819996
  H         4.0610654666        0.4161987169       16.3223959445
  C         2.5688710969       -0.5016096346       17.6700012107
  H        15.6630527641        1.0947151848       21.4610067392
  H        15.0095113971        1.1532126132       23.1113741004
  C        16.7690263571        2.3990939150       22.9745455557
  H        10.5379190771        9.5423613168       13.5924587506
  C        11.4704746145        8.3571726426       12.2281390414
  H         3.4562342710       -0.5536281240       37.9578309180
  H         4.0680765054       -2.0127736991       37.1260518187
  C         5.5133811606       -0.9118166744       38.0735738598
  H         1.5328773458       -0.2511013572       17.8916570006
  H         3.0468588412       -0.5146983303       18.5910913104
  C         2.6937271349       -1.8879713104       17.0532604035
  H        16.8043145938        3.3712709845       22.5073231071
  H        16.6826339723        2.3457330363       24.0843412430
  C        17.9919873961        1.7147943707       22.4876474142
  S        12.2237054240        6.8947546198       11.6634134075
  C        11.4667768291        9.4790661097       11.3104871144
  H         5.3968812810       -0.2941060152       38.9452103537
  H         5.7333298702       -1.9314910496       38.3511495745
  H         6.3584155562       -0.4426929274       37.3489853417
  H         2.3380722394       -1.7638231309       16.0350389057
  H         2.0586083246       -2.4508112741       17.7224264293
  H         3.7037440817       -2.2092142729       16.9244831930
  H        17.8988721823        1.2342106615       21.4978589497
  H        18.2263100899        0.8996359343       23.1102865037
  H        18.8682162174        2.3540743117       22.4851077239
  C        12.3611201355        7.7658238556       10.1602919157
  N        12.0638145974        9.0917614976       10.1769648063
  O        11.1493104620       10.6202199837       11.6076743797
  S        13.2150709934        7.1686632143        8.7257287385
  C        12.1168730939       10.0307943118        9.0377210912
  H        12.2966843862       11.0750821120        9.3393827696
  H        12.9084869665        9.8681716575        8.2283697214
  C        10.8136393305        9.9751326867        8.3201949126
  H        10.1251622583       10.8873869689        8.4914886801
  H        10.9131011560        9.9509002638        7.2527632839
  H        10.2982044034        9.0775232808        8.5909456946
  H        23.6134738878       10.7998001759        3.2493047071
  C        22.7524362510       10.8569800051        3.9371811976
  H        22.5165946828       11.8936516170        4.1011831490
  C        23.2221804610       10.1656883452        5.2494514745
  C        21.4966033762       10.2366052944        3.3627527069
  C        22.0815349038       10.4740169555        6.2452929339
  H        23.3836728303        9.1352725573        5.0579180172
  H        24.1397256642       10.5828822075        5.5264339040
  H        20.6589647487       10.2601456065        4.0438354231
  H        21.6088819506        9.1916246539        3.1225487216
  H        21.1997850748       10.7328840647        2.4659280824
  C        21.2248258902        9.2040179451        6.6411317257
  H        22.5157775288       11.0219031889        7.1266069905
  H        21.3997708609       11.2402234655        5.8153919615
  C        20.2251155711        9.5411192582        7.7646833810
  H        21.9592182688        8.5410918642        7.0654671244
  H        20.7197508094        8.7583917409        5.7591426870
  C        19.0615761236       10.5589806263        7.5443160494
  H        20.8152013673        9.8356948171        8.6956240875
  H        19.8202000401        8.5519930171        7.9987275581
  C        17.6938393617        9.9779898665        7.1651074558
  H        19.0246710959       11.2491900913        8.4248318088
  H        19.2898268854       11.1756674709        6.7160791499
  C        16.6002075768       11.0270700590        6.9283671755
  H        17.3606574706        9.3252329929        8.0136097950
  H        17.7014828311        9.1996304482        6.4069891180
  C        17.1001708406       12.3822679176        6.2070228243
  C        16.2893069407       11.7816706372        8.1940345648
  C        15.2994715465       10.3523215268        6.3529401745
  C        16.8967093829       13.5058122979        7.0727596325
  C        17.4121204134       12.6409304642        4.8969643738
  C        16.4112706364       13.1180081075        8.3122232853
  C        15.7655046128       11.0475517599        9.2755125760
  H        15.5220802044        9.7753775857        5.5116161157
  H        14.9216714960        9.7061784249        7.1743071389
  C        14.1736182683       11.3206349948        5.8931244142
  S        17.2630722259       14.9459908604        6.1796238063
  C        17.5592653856       13.9684886042        4.7246005816
  H        17.5102252590       11.8404918915        4.1254871689
  C        16.0226075461       13.7729610054        9.4339861703
  H        15.7171347907       10.0010271481        9.2608590756
  C        15.4821961640       11.7189544098       10.4218215906
  H        14.6154051562       12.1776026962        5.3607070090
  H        13.8260838428       11.9002640961        6.7749008680
  C        13.0968891963       10.6962051720        5.0078944665
  C        17.9610628966       14.7065024629        3.4538361509
  C        15.5322539508       13.0178589163       10.5146887395
  H        15.9981241899       14.8555503012        9.4322348767
  C        14.9613440379       11.2938972798       11.6436947559
  H        12.1549792806       11.2041372642        5.1791306604
  H        13.0476339714        9.6205026869        5.4122214403
  C        13.5387867385       10.7933992842        3.4902328806
  C        17.9941997153       16.1011114119        3.2173917249
  C        18.2612297534       13.7869507642        2.3044065762
  C        15.0762880316       13.6792844531       11.7643541560
  C        14.7900758998       12.3564010104       12.5175003678
  S        14.6760623848        9.8018348934       12.4213545265
  H        14.3989959726       10.1900123422        3.3508405880
  H        13.8311930226       11.8133983842        3.2532493234
  C        12.3812582931       10.3581125033        2.4840791264
  N        17.6921912418       17.0893211116        4.1944619012
  C        18.2835041578       16.6507516675        1.9798641858
  C        18.5843284941       14.3650699690        1.0675360954
  H        18.1999988968       12.7227208897        2.3376710032
  C        13.7164711274       14.4308783979       11.5370776988
  C        16.1200867771       14.5031416385       12.4535324250
  C        14.3375242923       12.0020417808       13.7575941234
  C        14.3205232179       10.6503741850       13.9097481722
  H        11.6184763790        9.6990571855        3.0187040755
  H        11.8741281340       11.2594281611        2.1655254028
  C        13.0313358566        9.5371427220        1.3684747136
  S        17.6796818923       18.4924843775        3.4506611135
  N        18.0458796560       17.9956634229        1.9570356729
  C        18.6023818298       15.8287073272        0.8420767373
  H        18.7153429872       13.7328731413        0.1940081177
  H        13.9145422525       15.1509105502       10.6884454211
  H        13.3958289440       15.1254636030       12.3881987110
  C        12.5598181317       13.5580064585       10.9404646317
  H        16.1858098398       15.4064122134       11.7887265628
  H        15.7314308660       14.7875805874       13.4010594715
  C        17.4570626714       13.7978767361       12.6817070088
  H        14.0689518669       12.7030783043       14.4693851534
  C        14.0144883710        9.9213401167       15.1710893838
  H        12.2980922155        8.7616754244        1.0528312328
  H        13.8549868682        8.9973801723        1.7725464925
  C        13.5269601259       10.3242549828        0.1699716421
  C        19.0141026734       16.4935709674       -0.3805946824
  H        12.8771962901       13.0258457939       10.0181939294
  H        12.3557950471       12.7388812761       11.6793369675
  C        11.2290505278       14.3298572206       10.8621394837
  H        17.8987103020       13.3166197051       11.7789321354
  H        17.3842056943       12.9186617177       13.2555740554
  C        18.5357155844       14.6934466735       13.3070345431
  C        13.8289578428        8.5240883635       15.3445500973
  C        13.9827520391       10.7089136553       16.4564000215
  H        13.7089205734       11.2535584850        0.5751194746
  H        14.4234868823        9.9005630674       -0.2865913567
  C        12.5061301531       10.8732894450       -0.8608059517
  H        19.0546999840       17.5364057905       -0.2424900208
  C        19.3939891194       16.0658700414       -1.5853157599
  H        11.2871802605       15.3353817249       10.5825893432
  H        10.7673589843       14.2197407021       11.8823570194
  C        10.3375035433       13.5739714321        9.8193685277
  H        19.1162603589       15.3544320995       12.5973789879
  H        17.9465435377       15.3103908282       14.0668255912
  C        19.5299025678       13.7282634505       13.9951139056
  N        13.9817526549        7.5536251382       14.2907154912
  C        13.5531395652        7.9102682061       16.5491946355
  C        13.6410346452       10.1070406885       17.7438938417
  H        14.2530775948       11.7285098739       16.4505177802
  H        12.8577833419       11.8299797523       -1.1987606431
  H        11.5436990821       10.9566547082       -0.4195212161
  H        12.5642113943       10.2917706415       -1.7216960959
  S        19.5874671420       14.4767279539       -2.2780586563
  C        19.6429407881       17.1531030551       -2.6128643124
  H        10.7471774971       13.3055902865        8.8488617760
  H        10.0504420595       12.6840850339       10.3222920027
  C         8.9646348617       14.3322622880        9.6475164143
  H        19.7364001039       12.9548590282       13.2977767986
  H        19.0664554806       13.2969065821       14.8519386782
  C        20.8490575109       14.3769644243       14.4077593597
  S        13.7450855156        6.0393635858       14.9330450304
  N        13.3986248860        6.5535761960       16.4501391574
  C        13.4742626169        8.6037784152       17.8106083596
  H        13.6496676203       10.7656987894       18.6309169113
  C        19.8763566398       15.3131606545       -3.7887680154
  N        19.9446816723       16.6412275883       -3.8105537759
  O        19.5917066279       18.3684981748       -2.3655980214
  H         8.6410862604       14.8539814840       10.6081668208
  H         9.1543673531       15.1812880636        9.0021724879
  C         7.9605127788       13.4979675139        8.9781486998
  H        21.5623689475       13.6702395107       14.7849268544
  H        21.4119554169       14.7501129209       13.5578538981
  C        20.8348133721       15.5235808753       15.4562602596
  C        13.1945001911        7.7977210004       18.9529449081
  S        20.3347043991       14.5195372828       -5.2806049946
  C        19.8561034825       17.5062367675       -5.0249021794
  H         8.3144860789       12.9740548617        8.0671499843
  H         7.6507152428       12.6844758949        9.6438931557
  C         6.7338288630       14.2637918266        8.5104768106
  H        20.9426242720       14.9888456353       16.3605457688
  H        19.8203783823       15.9429498765       15.5292118661
  C        21.9169274448       16.5786947710       15.2309446142
  H        13.3816404478        6.7304686691       18.8794688425
  C        12.5634232076        8.0697934625       20.1203089980
  H        20.4650544663       17.1024577729       -5.7547249731
  H        20.2592062537       18.4503288234       -4.7518805766
  C        18.4475263822       17.6147913410       -5.4595732727
  H         6.1716679113       13.7447915182        7.7322679254
  H         7.1882980971       15.2055987603        8.2407049247
  C         5.7835960716       14.5331286270        9.6372680076
  H        21.8694337588       17.3516499617       15.9879441054
  H        22.7951885426       15.9594078442       15.4304861691
  C        22.0591233944       17.3289669201       13.8464276312
  S        12.0057892678        9.6126042584       20.4905103097
  C        12.3164656006        6.9729840392       21.1025734347
  H        17.6915096187       18.0544058685       -4.8172797117
  H        18.0469355694       16.7005824477       -5.9530465432
  H        18.5455348911       18.3312460632       -6.2445171329
  H         6.1402289371       14.9920431089       10.4923664421
  H         4.9780568807       15.1483271542        9.4095608293
  H         5.3550156878       13.5376828011        9.9091938368
  H        22.9607574684       17.1231658063       13.3326161563
  H        21.1959767196       16.9427052066       13.3183442034
  H        21.9670184623       18.4435761315       14.0390385818
  C        11.5810026205        8.8390347258       22.0615672106
  N        11.7905826957        7.5097427053       22.1846749174
  O        12.7307131891        5.7744749532       20.9221357503
  S        10.8884600971        9.8142784834       23.4139865639
  C        11.6036687015        6.6083669099       23.3081323190
  H        11.4648793582        5.5154713292       22.9538932108
  H        10.6382090112        6.7720347263       23.7131759225
  C        12.7947116907        6.6540285692       24.3628174771
  H        12.7453955839        5.6217344462       24.8032810063
  H        12.6499767512        7.4542698129       25.0728902342
  H        13.7487193912        6.9474705806       23.8783216813
