352
 i =    13600, time =    13600.000, E =        25.2004955878
  H        12.4294952807        6.9374256226       32.4258211351
  C        11.6983404555        6.1292662603       32.5114909328
  H        12.2753179071        5.2650517770       32.2600468030
  C        10.6499914273        6.4854394331       31.5143308495
  C        11.0915295374        5.9055199857       33.8976551418
  C        11.1846576263        6.0847279722       30.0907424301
  H         9.6784135922        5.9164462897       31.6784606175
  H        10.4421946645        7.5318368996       31.5151053085
  H        11.7358761717        5.7326265944       34.7102341475
  H        10.6424704486        6.8272425860       34.1837497861
  H        10.3579282782        5.0513016319       33.9765117476
  C        10.0624348438        5.7898158412       29.0507602939
  H        11.7002373577        5.1490597430       30.1425270028
  H        11.8397990632        6.9175543510       29.7297762151
  C        10.5727754840        5.7251425035       27.6695684387
  H         9.6860879903        4.8098218305       29.3187193574
  H         9.3536179646        6.6228642720       29.0820795714
  C         9.5668716474        5.0961610178       26.6604209195
  H        11.5824630360        5.2639479184       27.7472368484
  H        10.7411715785        6.7054862446       27.3503301475
  C         8.3193145795        5.9372517351       26.4389683215
  H        10.1604610963        5.0905496884       25.7044377301
  H         9.3729146345        4.0400839999       26.8883825934
  C         7.1819942788        5.2920820290       25.7018744313
  H         7.9370541801        6.2460650594       27.4130767432
  H         8.6968895088        6.7993401154       25.9211791895
  C         6.7962232265        4.0150838005       26.4035550900
  C         7.5738515880        4.6020531892       24.4568456600
  C         5.9499817140        6.2796475551       25.6354149877
  C         7.0832292228        2.8721631821       25.6203425047
  C         6.1835877630        3.7146071967       27.6002383153
  C         7.6661252389        3.2773270115       24.4370338854
  C         8.0212401941        5.2806137118       23.3306771207
  H         6.2495800062        7.0626325270       25.0516530699
  H         5.7068151707        6.7870449666       26.6077853248
  C         4.6855767371        5.6848905634       24.9981227207
  S         6.6693886756        1.3465793192       26.4085250436
  C         6.1071613706        2.3557381033       27.7784126944
  H         5.8364479884        4.5069584099       28.2927450028
  C         8.0107553953        2.6555611992       23.2850214488
  H         8.1116467057        6.3140004422       23.3249362171
  C         8.4046484808        4.6131160661       22.1581997058
  H         5.0112895296        5.3778584282       23.9456434713
  H         4.4350035920        4.7187383510       25.5782266335
  C         3.4593448130        6.5548354348       24.8622705710
  C         5.7246789566        1.6750525386       29.0286700305
  C         8.3313146661        3.2694254528       22.1063232612
  H         7.9815087116        1.6152536168       23.2846698905
  C         8.8653344690        4.8984169941       20.9077945862
  H         2.6559865246        6.1735234236       24.2763282454
  H         3.6505398518        7.3765345576       24.2472085107
  C         2.8666379229        6.8413181125       26.3227669322
  C         5.6964187671        0.2831266603       29.3031340719
  C         5.3119645953        2.5600697192       30.1764603064
  C         8.6898311212        2.4561649765       20.8407363105
  C         8.9214084008        3.7846989811       20.1129551410
  S         9.1006121500        6.4291786434       20.2145917945
  H         2.2969581287        7.7794181958       26.3993056962
  H         3.6383530881        6.8166254048       27.1548651050
  C         1.8742319983        5.6991758058       26.6285234867
  N         5.7885494158       -0.7644463179       28.4255933189
  C         5.5188553579       -0.1417076899       30.6381738948
  C         5.1183295805        2.0709824628       31.4404344628
  H         5.1771057843        3.6432715502       29.9521821460
  C         7.4562921779        1.6868553250       20.2464774083
  C        10.0521814354        1.6767205788       20.9748421178
  C         9.2034019279        4.2309513943       18.7739772378
  C         9.3545825474        5.6090562962       18.6759654478
  H         1.0701642814        5.6685868079       25.8476302486
  H         2.3929048073        4.7145221562       26.6485108995
  C         1.2439253730        5.8609174262       28.0305386083
  S         6.0247372725       -2.1129728096       29.2867871466
  N         5.6427285243       -1.5164825186       30.7329570397
  C         5.2555296602        0.6379007210       31.7532397635
  H         4.7543990974        2.6558262385       32.2126841848
  H         7.0476324633        0.9793371915       20.9936704253
  H         7.8806115317        1.0990816218       19.4679880082
  C         6.4312036849        2.5976211657       19.6322026666
  H        10.3281747379        1.1544456291       20.0656525491
  H         9.9282468154        0.8720859988       21.6815788848
  C        11.1742719435        2.6549558860       21.3461434116
  H         9.3338494271        3.5013712836       18.0203812932
  C         9.7414820572        6.3653243002       17.4956064702
  H         0.4726649361        5.0584813179       28.0617340032
  H         0.7203503834        6.7879426094       27.9576121093
  C         2.1615753828        5.7708933226       29.1855063272
  C         4.9879175480        0.0367376671       33.0769015690
  H         6.7787968382        3.2392129993       18.8009155031
  H         6.0374430760        3.3473158257       20.3483791861
  C         5.2033810332        1.7719382505       19.1720701250
  H        11.1373026109        2.6235698862       22.4453994334
  H        11.1393634565        3.7066475157       21.0848577095
  C        12.4430168776        2.1048073704       20.7466897327
  C         9.7664886069        7.8192705199       17.3058171476
  C        10.1992925423        5.6274509057       16.3001747700
  H         2.6511782734        4.8248060081       29.2689583507
  H         2.9953945885        6.4175678396       29.0427542656
  C         1.6477916348        6.2058466186       30.5056205264
  H         5.0006740594       -1.0306567355       32.9206351140
  C         4.8069948025        0.5579221829       34.3405701752
  H         4.5455241737        1.8609296574       20.0823164620
  H         5.5463126357        0.6971286332       19.0139936639
  C         4.4277012231        2.3844038924       18.0071887920
  H        12.5381810000        1.1479319756       21.1543972368
  H        12.2762920902        2.0978318705       19.6870937156
  C        13.6768659974        2.9830690536       21.1185930593
  N         9.2997926903        8.7390685609       18.2607312989
  C        10.1080887336        8.4811662142       16.1554800506
  C        10.4903356802        6.2614121145       15.1105429212
  H        10.2697822709        4.5314247953       16.3288910618
  H         0.8689897034        6.9720610048       30.5060908610
  H         1.3013094618        5.3159418572       31.0393005036
  H         2.4870593349        6.5171422988       31.1046226715
  S         4.4623872690        2.1718930420       34.7204956166
  C         4.6307410558       -0.4592332875       35.4153844721
  H         4.4150460916        3.4318239223       18.1419746168
  H         4.9849383279        2.2994824016       17.1607253686
  C         3.0290892360        1.8281965633       17.8463780251
  H        13.5782911908        4.0533166079       20.8205296786
  H        14.4635278678        2.4552048879       20.5873739185
  C        13.8971215907        2.9947518799       22.6439034541
  S         9.3614784516       10.2460867490       17.6903806373
  N        10.0753304293        9.9073157437       16.2357703727
  C        10.4878626269        7.7868968965       14.9619124579
  H        10.6805006019        5.6838908805       14.2225789822
  C         4.2161331539        1.5174645515       36.3564290858
  N         4.2627084574        0.1886828778       36.5213832923
  O         4.9441829380       -1.6315144932       35.2673156406
  H         2.5595817526        2.3972585135       17.0472168457
  H         2.3511368757        2.1938415860       18.6295551419
  C         3.0289970687        0.3411525399       17.5210217032
  H        14.4694953699        3.8978871309       22.8042893495
  H        12.9652517479        3.2376218460       23.2023608858
  C        14.7346538947        1.7834605177       23.0656341138
  C        10.8515981351        8.5946295484       13.8399497709
  S         3.9917450592        2.5550261273       37.8703500294
  C         4.2427398530       -0.5044480932       37.8451150203
  H         2.1297940544        0.1615188635       17.0211798260
  H         3.9173228643        0.2418051260       16.9367538082
  C         2.8371962570       -0.6253002755       18.6758102436
  H        14.9080080332        1.0534878534       22.2405532147
  H        14.3385683046        1.2515279844       23.9577312653
  C        16.0502695532        2.2588820462       23.6636741859
  H        10.7260873605        9.6261987782       14.0233352380
  C        11.4510940032        8.2540914267       12.6927316224
  H         3.6623896255       -0.0835404595       38.6489475760
  H         3.7399089062       -1.4629594298       37.6833395948
  C         5.6711274783       -0.6153183149       38.4209368276
  H         3.2301623255       -0.3119444039       19.6683753740
  H         3.3727967906       -1.5349265725       18.4622224362
  C         1.3728995908       -0.9538789701       18.8256720497
  H        15.9217701914        3.1698993000       24.2527099773
  H        16.5784940416        1.6238765404       24.3343153162
  C        17.2464240582        2.5166011194       22.8269121363
  S        12.0650101480        6.7473872278       12.2381732747
  C        11.6661690176        9.3117186263       11.6314692114
  H         6.0140392885       -1.6343984328       38.2133433185
  H         6.3762384773       -0.0525603036       37.8546171863
  H         5.8142487393       -0.3852093854       39.5104449983
  H         0.7285596065       -0.9065613114       17.9739714801
  H         1.1020182687       -0.2594022935       19.5556664506
  H         1.3157327606       -1.9302044921       19.2948764783
  H        18.1573023056        2.3326249570       23.5076544761
  H        17.2446522165        3.5160959738       22.4673004601
  H        17.4870443173        1.8173912596       21.9846161151
  C        12.6003122773        7.4700502838       10.7008752946
  N        12.3812208521        8.7891445250       10.6100371944
  O        11.1588500514       10.4580573057       11.7143526458
  S        12.9182303423        6.5346790255        9.2520296619
  C        12.5030011090        9.4868736436        9.3254193910
  H        12.7122102932       10.5389729820        9.6438030610
  H        13.3169302719        9.1991611005        8.7937301030
  C        11.1471138955        9.2809009454        8.5846245637
  H        10.2600540393        9.2624404269        9.2489923001
  H        10.9363667198       10.1412486870        7.9756475370
  H        11.1139195596        8.3468863981        8.0185914425
  H        20.9253683460       10.6664608552        3.7903137994
  C        21.5985517939        9.8003783694        3.8674500813
  H        20.9730716858        8.9601389397        4.0018461709
  C        22.5301270435        9.9123705219        5.0672067690
  C        22.5740455712        9.5775957927        2.6094887318
  C        21.8994896911       10.1454530268        6.3898993794
  H        23.1018647074        8.9794749501        5.1673590102
  H        23.1618038871       10.8346525829        4.8743835433
  H        23.0029527127       10.4890344767        2.1865902239
  H        22.1384538483        9.0763929146        1.8039904162
  H        23.3883399891        8.9692392336        2.9269657915
  C        21.0080924904        8.9959664167        6.9597348217
  H        22.6895401159       10.4404853660        7.0068082401
  H        21.2207691904       11.0157207514        6.3629370951
  C        20.4219115937        9.3718805699        8.2798922381
  H        21.5829803258        8.0331631104        6.9821568534
  H        20.1173322629        8.8691692782        6.3850541587
  C        19.2039094273       10.3122632232        8.2111545883
  H        21.2828426274        9.7280653386        8.8674622759
  H        20.0534717013        8.4771306577        8.7858877729
  C        17.9285569219        9.5833947242        7.7088213768
  H        19.1026744594       10.6493994287        9.3158709561
  H        19.3773436514       11.2775316385        7.7366858468
  C        16.7219403478       10.4947514311        7.4324410952
  H        17.6136204960        8.7465478555        8.3807011504
  H        18.1870912137        8.9428502767        6.8153738471
  C        17.0049260243       11.8143734819        6.6757776762
  C        16.2861478674       11.3134557190        8.6254120732
  C        15.5104116545        9.7877782359        6.6419450056
  C        16.7367226507       13.0101133543        7.4191311906
  C        17.4441765112       12.1360986702        5.3655589839
  C        16.2290378015       12.6800460636        8.6344938304
  C        15.8362898502       10.7170439131        9.7719973657
  H        15.9556304613        9.4210129302        5.7508237284
  H        15.3283314903        8.8676986162        7.1670967769
  C        14.2407429771       10.5605653143        6.3415398225
  S        17.0118021649       14.4996835883        6.5659992131
  C        17.4715816444       13.4824915715        5.1735519068
  H        17.4713519145       11.3750557232        4.6590298869
  C        15.7111451137       13.2760605587        9.6911923132
  H        15.8269815691        9.6672364217        9.8262494311
  C        15.4187302526       11.3344088563       10.8906043108
  H        14.4183677494       11.5645091077        6.0893276052
  H        13.6119732558       10.5344595680        7.2471902756
  C        13.3460821264       10.0218940962        5.2379937184
  C        17.8840760418       14.0764390433        3.8316798121
  C        15.3739483077       12.6328484738       10.9034511564
  H        15.6983604582       14.3891164749        9.6544968451
  C        14.9335488208       10.9379567330       12.1093166750
  H        12.5567052925       10.7073027737        5.2063317043
  H        12.9607658149        8.9558404002        5.3933945315
  C        13.9347784162       10.2521408205        3.8630194189
  C        18.0073893051       15.5059614605        3.5983827176
  C        18.3517488699       13.1901175034        2.7433429275
  C        14.9675544389       13.3959673317       12.1166986284
  C        14.7677901673       12.0518992311       12.9378552320
  S        14.8307149783        9.5066918944       13.0322594325
  H        14.9374309398        9.8851530724        3.7681138966
  H        13.9970822344       11.2835004749        3.5595201304
  C        12.9295862987        9.6728921642        2.7515789863
  N        17.7476753134       16.5184333509        4.5665894859
  C        18.2530036768       16.0243872061        2.3504282953
  C        18.6376180081       13.7607433420        1.5134789029
  H        18.5937692829       12.1740366166        2.8473423940
  C        13.6953048445       14.2017261340       11.9287114908
  C        16.1936084839       14.1513278212       12.7551576440
  C        14.4315877599       11.7589316487       14.2896046883
  C        14.3360844713       10.4041354228       14.4673662811
  H        12.7632020623        8.5833741557        3.0021553693
  H        11.9837501793       10.1598825894        2.8814509033
  C        13.6140188295        9.8742654164        1.4132639751
  S        17.9072350163       17.9900994311        3.7928075325
  N        18.2372957137       17.4190702388        2.3070714269
  C        18.5317445972       15.1916919700        1.2697499637
  H        18.9393745069       13.1563356696        0.7432875822
  H        13.8079151406       14.9250425791       11.1710181334
  H        13.4822667719       14.6751374740       12.8753333296
  C        12.4328266050       13.3459620683       11.6887025169
  H        16.5381047689       15.0776831937       12.2443586189
  H        15.7712182867       14.4736714726       13.7190505679
  C        17.4617124509       13.2289767235       12.9820583659
  H        14.1729608789       12.5932717818       14.8833360722
  C        13.9030304488        9.7632067023       15.7382225524
  H        14.5192616162        9.4037549459        1.2392429129
  H        13.7860551597       10.9813327126        1.2689807524
  C        12.6665331849        9.5125426439        0.3084695334
  C        18.8192997590       15.9288321512        0.0438689953
  H        12.6974389612       12.5376710078       10.9414667364
  H        12.1141201618       12.9528910909       12.6168344839
  C        11.1821760168       14.1698923671       11.1265195150
  H        17.7662083948       12.6999271578       12.0609667611
  H        17.3124621087       12.5260436501       13.8115548356
  C        18.5944338392       14.1037444365       13.4751746091
  C        13.9059977591        8.3590004411       15.9301774813
  C        13.7166827307       10.5985627835       16.9430354802
  H        12.4848338516        8.4738956335        0.4366623179
  H        11.7162684501       10.0781256270        0.5277856967
  C        13.2324522431        9.9119908772       -1.0710590499
  H        18.7229636130       17.0161496150        0.1214182740
  C        19.1933351678       15.5777881859       -1.1937311889
  H        11.4741879242       14.7600399070       10.2798790867
  H        10.7715163551       14.9084383801       11.7960900137
  C        10.0813649717       13.2716766602       10.4450942088
  H        18.7207239758       14.9176110433       12.7790441864
  H        18.1450704434       14.5487986954       14.3656837352
  C        19.9518938501       13.4525449385       13.7546244569
  N        14.1984016411        7.2643530462       15.0383503641
  C        13.4589136924        7.8367912197       17.1179228775
  C        13.3670987282       10.0037914636       18.1861312927
  H        13.8517738439       11.6820393580       16.8114543333
  H        12.5308487252        9.5068650396       -1.8750876014
  H        14.2596853701        9.5123751124       -1.2280432936
  H        13.3747323069       10.9980095744       -1.0991408701
  S        19.4543718298       13.9358522735       -1.6374784040
  C        19.2564700413       16.5697472513       -2.2831244527
  H        10.6072251643       12.4916076867        9.9421167189
  H         9.5842684069       12.7885437819       11.2981010045
  C         9.1023427872       13.9733970424        9.5187650459
  H        20.2582421794       12.9438065620       12.9235992169
  H        19.8600930389       12.8434340744       14.6771231505
  C        20.9625027017       14.5595776860       13.9434684479
  S        14.1770472369        5.8620802854       15.8425535745
  N        13.3623196994        6.4224539196       17.1154960860
  C        13.1617686008        8.5460749136       18.3357327072
  H        13.3660840808       10.6646502031       19.1055978268
  C        19.6014721999       14.5895181477       -3.3147572960
  N        19.5506266429       15.9349816395       -3.4147510467
  O        19.1806932420       17.7727722553       -2.1220216559
  H         8.7249984015       14.8782812416       10.0102906239
  H         9.7385336924       14.3359107989        8.7207072674
  C         7.9456028646       13.0634556207        8.9992377114
  H        21.9602642219       14.0549611907       13.7554922448
  H        20.9311929758       15.2324921836       13.0837597718
  C        21.0257760600       15.2604069769       15.3084796418
  C        12.7818331932        7.8516491713       19.5196935487
  S        20.0433917498       13.7433739098       -4.7487840798
  C        19.5874162283       16.7599120629       -4.6794317745
  H         7.7007144648       13.4078624070        7.9519191186
  H         8.3972389110       12.1172896537        9.0470261404
  C         6.7692308577       12.9429434743        9.9276259568
  H        21.0301707332       14.5617544206       16.1547873218
  H        20.0634220272       15.6781281373       15.4413482842
  C        22.1971055058       16.2857248441       15.5415825290
  H        12.8295869665        6.8494401297       19.5200844379
  C        12.2219333910        8.2765786952       20.7037416298
  H        20.3183525803       16.4248396125       -5.4131929877
  H        20.0583299810       17.7095899842       -4.3325844961
  C        18.3025849365       17.0234543091       -5.3716671460
  H         6.9800042672       12.9421297028       10.9725334594
  H         6.1403269716       12.0572061324        9.7576930367
  C         5.8540398299       14.1602794039        9.7306728312
  H        22.6080994881       16.1929223197       16.4876288251
  H        22.9606587457       16.1609840977       14.8053284835
  C        21.6193306105       17.7378680249       15.4092821286
  S        11.6906556514        9.8294726133       21.0278365886
  C        12.1396227987        7.3079640891       21.8223695846
  H        17.4750879039       16.3992182383       -4.9485066180
  H        18.2677800699       16.8392838130       -6.4788887800
  H        18.0877925165       18.0873153332       -5.3105668293
  H         5.5398089651       14.6993213643       10.6703975845
  H         6.2951022440       14.9566914380        9.1627613329
  H         4.9020219383       13.8915486840        9.2316203788
  H        20.7863872904       17.8467391732       14.6947670552
  H        21.1473081790       18.1548692393       16.3205901831
  H        22.4286192346       18.4176290581       15.1376537782
  C        11.2626181669        9.2304574581       22.6272462892
  N        11.4911989441        7.9117599940       22.8302704268
  O        12.4391532551        6.1363003782       21.7661313785
  S        10.7667773086       10.2609662620       23.9744056318
  C        11.2989767560        7.3073620875       24.1740340108
  H        11.2108558360        6.2705068177       24.1436119056
  H        10.3813308932        7.6023065924       24.7052497141
  C        12.5431522450        7.5114336877       24.9595729082
  H        13.2006980166        6.6275108286       24.9928325503
  H        12.3497772104        7.8224543481       25.9461496129
  H        13.1594032834        8.1911488975       24.3752409158
