352
 i =    39000, time =    39000.000, E =        25.0124538634
  H        11.6451745460        6.7442951863       32.0037467221
  C        11.2319516315        5.7693883278       32.0740322860
  H        12.1413942790        5.1171606445       31.8870385113
  C        10.1112613962        5.6635356492       30.9946384929
  C        10.7404427731        5.2682325852       33.4605706481
  C        10.7058593658        5.9863860814       29.5715626342
  H         9.5855851400        4.7096521038       30.9914175458
  H         9.2953182168        6.3294069971       31.1969278616
  H        10.8229788960        4.1893536748       33.4849654557
  H        11.2759800157        5.6384873165       34.3307067238
  H         9.6782479765        5.5854179620       33.6074696799
  C        10.2019328696        4.9457035961       28.5061253887
  H        11.7903412446        5.8409078953       29.7053165492
  H        10.4374302346        7.0188408568       29.3367557074
  C        10.7788895382        5.3001438367       27.0977843093
  H        10.4149962369        3.9052906354       28.8348104456
  H         9.1193793700        5.1586166066       28.6498547838
  C         9.9533014574        4.7044581768       26.0699456173
  H        11.7434316890        4.8884546007       26.9473666935
  H        10.7480400718        6.4026121039       27.0178422144
  C         8.6176891098        5.5648715741       25.8419644349
  H        10.5258422124        4.5955729329       25.1697187077
  H         9.7808283284        3.6928606951       26.3437367157
  C         7.4612726783        4.8713051921       25.1842116217
  H         8.2681174319        6.0027857277       26.8124481490
  H         8.9975860951        6.4032310417       25.3069752788
  C         7.0916535726        3.4951551351       25.8188048791
  C         7.8417050237        4.1416691848       23.9367019223
  C         6.2290058089        5.8151737397       24.9046538368
  C         7.3213583024        2.4397454323       25.0095463086
  C         6.4961760763        3.0816342675       27.0545215131
  C         7.7772780648        2.8256964274       23.7763715252
  C         8.2324547802        4.8419240566       22.8049088262
  H         6.3997571213        6.5681245729       24.1320808287
  H         6.0576130893        6.4025904681       25.8162777781
  C         4.9446820475        5.0043765433       24.5238747147
  S         6.9658332254        0.9377643148       25.7088143224
  C         6.4019045955        1.7324237187       27.1567954624
  H         6.2192660900        3.9083199997       27.7780139110
  C         8.1765932086        2.1886454482       22.6163566253
  H         8.2518010262        5.9533945895       22.9575649995
  C         8.5500484043        4.2531235122       21.6316222232
  H         4.9862655097        4.4308173950       23.6106752617
  H         4.7362770563        4.2627574137       25.3339765584
  C         3.6323563410        5.8282791830       24.4728229263
  C         5.8924239274        1.0523307739       28.4321526863
  C         8.6162109794        2.9118996008       21.4774839610
  H         8.1966445453        1.0747987094       22.7151107478
  C         8.9210304636        4.6957405047       20.4174998647
  H         2.9181531652        5.4316142489       23.8692785844
  H         3.9057873054        6.7964669326       23.9975397745
  C         3.0318243473        6.0037138620       25.8456128399
  C         5.8626981975       -0.2756298004       28.6851171566
  C         5.4007830381        1.9338211218       29.5049326795
  C         9.0545735085        2.2853535327       20.2552762253
  C         9.1908078112        3.6406618295       19.5787045380
  S         9.2633064033        6.2445026621       19.6803362920
  H         2.2405492650        6.7303656769       25.8492465655
  H         3.7492399755        6.4553997734       26.4938143929
  C         2.3936857600        4.7687158789       26.4180107556
  N         6.2615491650       -1.2900979618       27.7182286683
  C         5.5105588178       -0.8023204243       29.8734868080
  C         5.0929088343        1.3728716853       30.7097248609
  H         5.2273134733        2.9676892772       29.3654808247
  C         7.9821331958        1.5309460411       19.4333410375
  C        10.3793624559        1.5121131240       20.3196669431
  C         9.5238571925        4.0795115331       18.2979541733
  C         9.6202801453        5.4253641753       18.1944741180
  H         1.8033222972        4.2339320527       25.6942145373
  H         3.1263788625        4.0555443249       26.8574912484
  C         1.4930065408        5.1807016453       27.5271939504
  S         5.9637735315       -2.7946650015       28.4764422186
  N         5.5527602275       -2.2253001303       29.9386298822
  C         5.1987507691       -0.0800513303       31.0490700951
  H         4.7171696235        2.0842316997       31.4569663370
  H         7.6840893789        0.5538753665       19.9203938520
  H         8.5326488938        1.2100261654       18.5123630094
  C         6.7465000351        2.3752826755       18.9249751746
  H        10.6959470579        1.1210694956       19.3826208904
  H        10.3113589145        0.5414546572       20.8397676786
  C        11.5188486369        2.3863763937       20.9522456274
  H         9.7535987758        3.3471524720       17.5014977156
  C        10.0202982220        6.2068821848       16.9872140846
  H         0.8190965113        4.3401908076       27.8425679058
  H         0.7520204277        5.9678475731       27.3338723248
  C         2.3598227963        5.4215283978       28.7931117175
  C         4.9005571640       -0.7187653971       32.3499184017
  H         7.0405362088        3.0997731713       18.1589615199
  H         6.4235093765        3.0690143374       19.6828887219
  C         5.5109066835        1.4351791252       18.4736845467
  H        11.1439563971        2.6780961555       21.9461839432
  H        11.7085195177        3.3140495599       20.4110811165
  C        12.7919988244        1.6156609742       21.1995272495
  C         9.9776763442        7.5761620781       16.8054057819
  C        10.1918785838        5.4071728954       15.7686882579
  H         3.0359851625        4.5686350710       28.8858840431
  H         2.9699086759        6.2543654281       28.6325045300
  C         1.5415337583        5.5906386473       30.1288710979
  H         5.0615594709       -1.7780005104       32.3827813635
  C         4.5611395112       -0.2263038416       33.5836181811
  H         5.2514948145        0.7089656334       19.2525794544
  H         5.9080093263        0.8467283643       17.6058789426
  C         4.4158184112        2.2384132031       17.9090572568
  H        12.7381071737        1.1051860038       22.1816362568
  H        12.9796136645        0.8292161378       20.4717373401
  C        13.9819159781        2.6497909347       21.1484145961
  N         9.6506102761        8.5749288999       17.7287678250
  C        10.3019049513        8.1585316593       15.5558045745
  C        10.5732754892        5.9953481454       14.5488986508
  H        10.0237438099        4.3257550992       15.8623465176
  H         0.9550370187        6.5052351780       30.0837358461
  H         0.8254862125        4.8161023032       30.1078519790
  H         2.1055376225        5.3369538363       31.0176933392
  S         4.3229128421        1.4086902863       34.0864453890
  C         4.5477404431       -1.2407496592       34.6880167578
  H         4.5652507512        3.3191432238       18.0557860007
  H         4.3349884470        2.1830666766       16.7975866192
  C         3.0715927453        1.9453611922       18.5850056235
  H        13.6742415371        3.6011112316       20.7003004677
  H        14.6346190164        2.2394976990       20.3891310021
  C        14.8339999827        2.7849743620       22.4371617717
  S         9.8907029835       10.0807007854       17.0588055853
  N        10.3180968238        9.5408873485       15.5925451929
  C        10.5903124938        7.4082565899       14.4106643570
  H        10.7588181261        5.3200477796       13.7119938508
  C         4.2929627378        0.7867096310       35.7053651695
  N         4.2352853965       -0.5691876369       35.8298619977
  O         4.9068322873       -2.3761953783       34.5670280961
  H         2.3449090977        2.6462557028       18.1017640746
  H         3.1676980084        2.2966026814       19.6223159261
  C         2.7166232283        0.4689994254       18.4504070519
  H        15.3682112855        3.7430263592       22.3826024936
  H        14.1768042146        2.7273453984       23.3424011357
  C        15.8258445608        1.6448131066       22.5959709066
  C        10.8461286536        8.0612843333       13.1158366282
  S         3.8031853084        1.7432805492       37.0266748669
  C         4.1615166204       -1.1750622500       37.1699518823
  H         3.2418443180       -0.1839718322       19.1120246662
  H         1.6967688049        0.4848458558       18.7509450493
  C         2.7425813371       -0.1008968671       17.0769789325
  H        15.8953631811        0.8947901486       21.8390753312
  H        15.4412093697        1.1156524732       23.4809790603
  C        17.2033656059        2.1162107269       22.9778386411
  H        10.4663151396        9.0797278815       13.0343653273
  C        11.2275998696        7.6813039513       11.8809844596
  H         3.5337468930       -0.7273586489       37.9314492904
  H         3.6592209407       -2.1827089900       37.1870238936
  C         5.5631195103       -1.4020411366       37.7993980028
  H         3.7622095519       -0.1845250523       16.6397755292
  H         2.1473421799        0.5009609213       16.3771799156
  C         2.1812139221       -1.4908623625       16.9889213485
  H        17.1043684493        2.9236746857       23.6422087738
  H        17.6199194710        1.3081623434       23.5889012940
  C        18.1206812866        2.4480091854       21.8603154614
  S        11.7440032138        6.1480296117       11.4408278975
  C        11.3939140968        8.7875280703       10.8358752739
  H         5.5585196052       -1.9682934129       38.7271473624
  H         6.2248522422       -1.8267965241       37.0283045658
  H         5.9810398450       -0.4200555647       38.1399057370
  H         2.9266931789       -2.2437156260       16.5782253683
  H         1.3602606004       -1.4453139763       16.1927841495
  H         1.7481239667       -1.9176649220       17.8925651740
  H        19.1777840509        2.2238624150       22.0523112379
  H        18.0502765793        3.4911046356       21.4480178552
  H        17.8599028360        1.8031952146       20.9949102267
  C        12.2625479045        6.8837553058        9.9291340884
  N        12.0097326658        8.2283552221        9.7813389069
  O        11.0774818549        9.9952793366       10.9243700141
  S        12.8425062376        5.9126748401        8.5193899425
  C        12.1056156525        9.0609162300        8.5433535949
  H        12.5687312163       10.0188242145        8.7597442486
  H        12.6886199018        8.5656588980        7.7597084054
  C        10.6602844523        9.2199802601        7.9400075973
  H        10.0636450584        9.9983750613        8.3453208177
  H        10.6970732164        9.2644329810        6.8506088911
  H        10.1385161804        8.2916459225        8.1545949347
  H        21.0928040181       12.2330569866        3.9806239928
  C        21.1599527061       11.1672387114        3.7615012029
  H        20.1713441618       10.6719038325        3.8150941465
  C        22.2104277214       10.5768979376        4.7551057669
  C        21.5418143046       11.0092071047        2.3314094885
  C        21.8710937975       10.7793335869        6.2078904659
  H        22.1562858772        9.5257625069        4.4264620488
  H        23.2133344612       10.9942936950        4.4726021358
  H        20.9130004091       11.7132144446        1.8062278617
  H        21.4035140950       10.0452992526        1.8443432031
  H        22.4763605134       11.3437975251        2.0365430632
  C        20.8677224677        9.6611312663        6.5250221163
  H        22.7919277726       10.5771317650        6.8523604332
  H        21.4627181038       11.8269317523        6.2864003332
  C        20.0113693066       10.0262716115        7.7320666961
  H        21.4120216844        8.7660805770        6.9138381784
  H        20.2634778725        9.3922936203        5.6838175548
  C        18.7907538130       10.7963277946        7.3486281752
  H        20.6483645524       10.7073631435        8.3860599821
  H        19.6292935514        9.2411698930        8.4364044647
  C        17.4870992949        9.9789299751        7.1554466903
  H        18.7001752303       11.5941720361        8.0902094162
  H        19.1687952932       11.1948882270        6.3419055316
  C        16.2536237658       10.9460622058        6.8064297191
  H        17.3064526561        9.3300041631        8.0252998880
  H        17.7859603861        9.2820702950        6.2729963535
  C        16.7028626667       12.3415523935        6.2868729811
  C        15.7297803242       11.5946619519        8.0958296900
  C        15.1060124773       10.2186953843        6.0530156274
  C        16.3831583032       13.3972060495        7.1567676866
  C        17.2679844847       12.8113216074        5.1209700117
  C        15.8214675234       12.8966440044        8.2553991897
  C        15.2733357771       10.8682822316        9.2143237306
  H        15.4800053083       10.0392556588        5.0738773342
  H        14.8381090586        9.3394270632        6.5361444747
  C        13.8464276001       11.0953366443        5.7364592816
  S        17.0870605996       14.8797222667        6.6444824093
  C        17.4310283943       14.1609694042        5.0606581330
  H        17.2961119986       12.2248906117        4.2455649178
  C        15.5007653483       13.4167917111        9.4793805780
  H        15.0230208049        9.8100823936        9.0804196435
  C        14.9722650319       11.4246620411       10.4284191883
  H        14.2296911474       12.0659370589        5.3533253165
  H        13.2915698102       11.3762459850        6.6854740897
  C        12.9155442485       10.5440512049        4.6394633571
  C        17.8959937116       14.9034032899        3.8118079212
  C        15.0582732133       12.7295081825       10.5781217698
  H        15.5446522872       14.5183930069        9.5532620756
  C        14.5567681117       11.0219317484       11.7132868736
  H        12.1187410209       11.2632969045        4.6358663675
  H        12.5096891928        9.5907339698        4.8660114271
  C        13.5715558930       10.4797261928        3.2175515943
  C        17.9528308612       16.3027005273        3.6361369119
  C        18.4845066152       14.0842415722        2.7135415339
  C        14.5810978291       13.4035470688       11.7652053344
  C        14.3489363291       12.0608108430       12.5415184672
  S        14.1959843304        9.4711793757       12.5495695189
  H        14.2997374579        9.7778132115        3.1554264947
  H        14.2190940853       11.3899222929        3.1877909246
  C        12.5373645180       10.3442036333        2.1175914287
  N        17.6475671110       17.2449013866        4.6369172056
  C        18.3024121693       16.8399841687        2.4182814186
  C        18.8157191587       14.6165067449        1.4790008141
  H        18.4490734469       13.0101926346        2.6972896847
  C        13.1715923282       14.0931639224       11.5128200810
  C        15.6272327788       14.3809523193       12.4412417361
  C        13.9961004205       11.6412607505       13.8384454373
  C        14.0190841206       10.2680105589       14.0403515244
  H        12.0681767809        9.3970615660        2.0571172045
  H        11.6744756038       10.8476598006        2.4180944440
  C        13.0553320238       10.6687994089        0.8050004178
  S        17.6473285892       18.7295765497        3.9124928849
  N        18.1474697981       18.2895658083        2.4388606572
  C        18.7004668231       16.0715631630        1.2896627223
  H        19.1945498168       14.0647055937        0.6982029130
  H        13.3645362948       14.9345827237       10.7667641244
  H        12.8102477657       14.5357163655       12.4737646424
  C        12.0993741247       13.1134265281       11.0746726090
  H        15.9125587363       15.1412428594       11.7791442064
  H        15.1802244836       14.8234113449       13.3294282172
  C        16.9077761866       13.7683055570       12.9283090482
  H        14.0434508389       12.2837668656       14.5984008397
  C        13.8404672632        9.5702412085       15.4268861820
  H        13.8460168243        9.9361850294        0.5867026262
  H        13.5408441506       11.6349491876        0.8349699749
  C        11.9867274184       10.6384603780       -0.2846504932
  C        18.9194040312       16.6970402091        0.0108980147
  H        12.4087960325       12.5860512074       10.1685530717
  H        11.7913609621       12.3202537177       11.7741587050
  C        10.8731384454       13.8978737154       10.7139884902
  H        17.5647772117       13.7711317130       12.0716567383
  H        16.7901151515       12.7277630160       13.2658909142
  C        17.5526046225       14.5830682867       14.0402614338
  C        13.6985537916        8.1718923392       15.6686330191
  C        13.6415956874       10.4178927851       16.6665310065
  H        11.4913454232        9.6123094474       -0.3855205418
  H        11.2295513984       11.3926995596        0.0588299718
  C        12.4579613969       11.0858425841       -1.6241603848
  H        18.6185691606       17.7448814687        0.1117729926
  C        19.1165614474       16.1300111502       -1.2347779226
  H        10.9259359266       14.3408739390        9.7289504039
  H        10.7440577317       14.6319378134       11.4863376333
  C         9.4966117372       13.1532102703       10.7371773781
  H        17.9625667796       15.5305895859       13.7341682178
  H        16.8085697848       14.7692781785       14.8288921790
  C        18.7840015422       13.8423922579       14.6026386464
  N        13.9764553207        7.2044625132       14.6874613061
  C        13.5955744442        7.6020766354       16.9289008493
  C        13.3358146495        9.8565506694       17.9140767760
  H        13.6339275343       11.4902027434       16.5800326969
  H        13.1656348423       11.8833181351       -1.5976781136
  H        11.6406173268       11.5348698972       -2.1182238349
  H        12.6292535869       10.1878083403       -2.1681618302
  S        19.3451843079       14.4647694552       -1.6149416880
  C        19.2650089737       17.0734907210       -2.3671400904
  H         9.7245596533       12.2355096170       10.1941678051
  H         9.3521672280       12.8931472533       11.7550927152
  C         8.3231838756       13.9294298146       10.3444981020
  H        18.5364386098       12.8276346739       14.7282674684
  H        19.0030479777       14.3546987906       15.5841449883
  C        20.0653828480       13.9840846555       13.7037616184
  S        13.9033026630        5.7220447464       15.4119557914
  N        13.6503293110        6.2221130363       16.9552058312
  C        13.2275876750        8.3361172628       18.0461595905
  H        13.0769225360       10.4905157620       18.8026744202
  C        19.7359104777       15.0547582007       -3.2556851041
  N        19.7655572376       16.3626716324       -3.4092242519
  O        19.1569884633       18.2772528038       -2.2646841812
  H         7.7768624303       14.1022924445       11.2496260445
  H         8.6866170153       14.8669996045        9.9308587616
  C         7.6695131339       13.1543564472        9.2055664820
  H        20.3155485982       13.0018800003       13.2596536068
  H        19.7608816415       14.5438338375       12.7957289714
  C        21.3830692878       14.4801437065       14.3526388649
  C        12.9272702042        7.6122668580       19.2406460613
  S        20.3867069963       14.0127555091       -4.5183293406
  C        20.0089540834       16.9835382470       -4.6762715315
  H         8.3431049008       13.0920524341        8.3154484132
  H         7.3934825453       12.0850750579        9.3444064360
  C         6.4104026109       13.8186520551        8.6640524634
  H        22.2275906888       14.3323576619       13.6957191131
  H        21.5620916004       13.9850588220       15.2887753847
  C        21.3041764935       15.9568625707       14.7173385811
  H        13.5247396380        6.7153645450       19.3366382478
  C        12.2163653775        7.9860677103       20.3559928180
  H        20.8631768347       16.5116450980       -5.2093668062
  H        20.4337533696       18.0133245823       -4.4730463745
  C        18.6411437136       17.1719574981       -5.4864499493
  H         6.1885252374       13.1654607619        7.7697912263
  H         6.6750019413       14.8556217812        8.4067573027
  C         5.3306519271       13.8375257894        9.7556093865
  H        20.2481180432       16.3069606575       14.7263439940
  H        21.4870376607       16.0127307588       15.7530833003
  C        22.3461526177       16.9405887030       14.1417155529
  S        11.2857003431        9.4455307224       20.5587369539
  C        12.2555734076        7.1442773752       21.5904207072
  H        18.0131858878       16.2993406840       -5.5717786675
  H        18.9061640295       17.4945995153       -6.4833005097
  H        18.1034182237       17.9910903366       -5.0619328526
  H         5.6650378125       14.1923524275       10.7160678450
  H         4.6894696504       14.5987335016        9.3535627233
  H         4.8872223976       12.8598993937       10.0984170014
  H        22.3891216857       16.8315515241       13.0215273760
  H        21.9784883801       18.0158527416       14.3290098303
  H        23.2800552647       16.6684755239       14.5735822194
  C        11.0115143151        9.0067399394       22.2569969691
  N        11.6327887655        7.8494895414       22.6124714629
  O        12.8069786268        6.0312913342       21.5781643407
  S        10.2315596155       10.0427628519       23.5026902789
  C        11.4497128636        7.1101212973       23.8714081322
  H        10.8205331384        6.2271404399       23.6885656028
  H        10.8672246667        7.6810629524       24.6373991968
  C        12.7958631963        6.5542436850       24.4402749448
  H        13.6647063348        7.1239303887       24.0946571561
  H        12.9098241166        5.4953620887       24.4380993380
  H        12.8127850378        6.7816384177       25.5168187534
