352
 i =    18100, time =    18100.000, E =        25.2248299049
  H        12.3414475414        7.2136724465       31.6871662886
  C        11.8366024191        6.2043857366       31.8050519383
  H        12.6158909328        5.5175707734       31.5156532642
  C        10.5669927564        6.0602842512       30.9242864696
  C        11.5333708893        5.9807606947       33.2655779325
  C        10.9598033661        5.8576609356       29.4598056595
  H         9.9929563259        5.2179124843       31.3177892588
  H         9.8504636292        6.8310381049       31.1427837174
  H        10.8614662246        6.8248440342       33.5175419371
  H        10.9962855854        5.0469040422       33.4521789446
  H        12.4729935978        6.1085970199       33.8338385987
  C         9.9838672047        6.6074911669       28.5102767661
  H        10.7867458503        4.7926566068       29.2105698928
  H        11.9864787012        6.1145261873       29.3577828233
  C        10.5462721264        6.4389051768       27.0486879022
  H         8.9120336420        6.3838112796       28.5493583457
  H         9.9717361730        7.6198676552       28.7290726279
  C         9.5271735152        5.6430555700       26.2479593971
  H        11.5488187088        5.9673958627       27.1739313558
  H        10.6478104513        7.4150717615       26.5677168505
  C         8.3060413483        6.4314583362       25.8687803588
  H        10.0079159867        5.1119524192       25.4190012177
  H         9.2189789649        4.7726760815       26.8804100458
  C         7.1690902675        5.5841168560       25.3806366031
  H         7.9019062468        6.8892932685       26.7349485874
  H         8.5551031938        7.2301888232       25.1941671097
  C         6.7487437227        4.3199585082       26.1209626264
  C         7.6595140539        4.7233267608       24.1983420126
  C         5.8786033533        6.4379297074       25.1290145615
  C         6.8422210488        3.1738388494       25.3504755037
  C         6.2854184589        4.0083580170       27.3831516907
  C         7.5040360628        3.4413228580       24.1820290498
  C         8.1156989095        5.3977212910       23.0960302683
  H         5.9037653443        7.1299268824       24.2877801984
  H         5.6290339666        7.1715768241       25.9355994622
  C         4.5983039512        5.7067286058       24.7721639217
  S         6.3036015481        1.7655213245       26.1098958352
  C         6.0820940068        2.6523068542       27.5627138180
  H         6.1523817260        4.8149685237       28.0737707778
  C         7.8707430149        2.7505285995       23.0896323779
  H         8.1045227699        6.4489047930       23.1895807260
  C         8.5625460004        4.6889168597       22.0273745296
  H         4.5591500438        5.2382134371       23.7886172841
  H         4.4777868377        4.7773684642       25.3392650702
  C         3.3161909227        6.5319507881       24.7440240191
  C         5.6860149411        2.0232369379       28.8635799715
  C         8.4947008890        3.2990146464       22.0006109290
  H         7.6777005041        1.7234632263       22.9911079339
  C         8.9904503049        5.0049994852       20.7761964323
  H         2.5437745464        6.0179325196       24.1938548171
  H         3.5245189283        7.5216511660       24.4000747514
  C         2.7022622074        6.6631158924       26.1285995577
  C         5.7530593008        0.6183721828       29.1200014145
  C         5.4017530927        2.8817681650       30.0049682379
  C         8.9296391826        2.5496120701       20.7547757701
  C         9.3071674465        3.8838529410       20.0135709121
  S         9.1276345832        6.5066613032       19.9044390550
  H         2.1461989872        7.5242584752       26.1994156729
  H         3.5252024062        6.9231315241       26.7654644201
  C         1.9198696034        5.3888204483       26.5720967492
  N         6.3306787121       -0.3088303314       28.2820132010
  C         5.5066104765        0.0397889391       30.3363903106
  C         5.1515512331        2.3089952353       31.2296085205
  H         5.4545825604        3.9300094184       29.8660535453
  C         7.8052138610        1.7801713843       19.9943770196
  C        10.1985501138        1.6153431967       20.8502714864
  C         9.7097373542        4.2079886446       18.7421880229
  C         9.6369053943        5.6147222259       18.5547953879
  H         1.2602438804        5.0297182282       25.8143954765
  H         2.4088351061        4.4651118790       26.8606700576
  C         1.2204930318        5.6334647160       27.9343036691
  S         6.2835823202       -1.7744894586       28.9675504358
  N         5.6632396872       -1.3660756156       30.4013324874
  C         5.2196330859        0.8603541605       31.4057160983
  H         5.0528871638        2.9382782958       32.1213650544
  H         7.3778303829        1.0397095786       20.7293884558
  H         8.2753318460        1.2013919723       19.1707045230
  C         6.7192665298        2.6617860720       19.3715627595
  H        10.2235223116        1.0592142143       19.8768762260
  H        10.2094030513        0.8288590911       21.5941530409
  C        11.4763550616        2.4693682823       21.0678703174
  H         9.9942458665        3.4947572782       18.0044273571
  C         9.8936038364        6.3558260954       17.2101178247
  H         0.5237367730        4.7214566553       28.2520534975
  H         0.6044794217        6.5725492332       27.9132935313
  C         2.3315048013        5.8652846126       28.9953290959
  C         4.9945610215        0.2111198140       32.6583888815
  H         6.9885508380        3.2211465459       18.4882361944
  H         6.4791160057        3.4274447306       20.1249476092
  C         5.5420275988        1.7127918867       18.9594716102
  H        11.3731945999        3.1691182831       21.9368528000
  H        11.7371073023        3.1333663710       20.1840115916
  C        12.5766582693        1.4255143451       21.2355827258
  C        10.1109604556        7.7503830909       17.1509521001
  C        10.0559992513        5.6136858577       15.9209841176
  H         3.2756423183        5.2887192724       28.9215496103
  H         2.4995966903        6.9725944340       28.8877174176
  C         1.9130507814        5.4671186411       30.4394849650
  H         5.1900708677       -0.7740738301       32.7679139345
  C         4.6614302195        0.6437759471       33.9121668472
  H         5.0961586605        1.1790178777       19.7855187154
  H         5.9572356352        0.8348925122       18.3457896380
  C         4.5943225917        2.5488524319       18.1100977190
  H        12.5401130521        0.8030544887       22.1650953362
  H        12.5718117867        0.7377096043       20.4349982863
  C        13.9183882404        1.9879741324       20.9699608059
  N        10.1349376858        8.6495214489       18.2698024403
  C        10.2611252806        8.4064425224       15.9861672235
  C        10.3636585162        6.2928911425       14.7615606418
  H         9.9647834676        4.5104359505       15.9442216209
  H         1.4355722787        6.2905289840       30.9215448470
  H         1.1489475504        4.6713012195       30.3301614081
  H         2.8107783032        5.2401582711       30.9935041642
  S         4.3571662395        2.2803337742       34.3556286145
  C         4.4830566957       -0.3368413913       35.0532592307
  H         4.5541032875        3.4837561348       18.5559391756
  H         4.9560957374        2.6538282834       17.0926520856
  C         3.1146550371        1.9061765947       18.2418448073
  H        13.9006613035        2.6285730295       20.1190067703
  H        14.6417372020        1.1725030634       20.7816464544
  C        14.3928257758        2.6738745141       22.2201390018
  S        10.3029318959       10.1662635310       17.7313674781
  N        10.2831083109        9.7894807780       16.1518848612
  C        10.4147378523        7.7719148294       14.7730835555
  H        10.4445722722        5.6823570344       13.8632178627
  C         4.2458030372        1.6221720821       36.0176593935
  N         4.3916798637        0.3081835263       36.1867705249
  O         4.4380933476       -1.6124285669       35.0108599756
  H         2.4143448350        2.6339929236       17.8155838656
  H         2.8031181197        1.9017715124       19.2697573431
  C         2.8914536777        0.5324720512       17.6041879070
  H        14.8494419699        3.6602262932       21.9379040255
  H        13.5022767591        3.0208074786       22.7579804701
  C        15.3132016329        1.8286946755       23.1680542329
  C        10.8210797004        8.5416735641       13.6309519098
  S         3.7773607597        2.6438118819       37.4113035537
  C         4.4291569901       -0.3164072014       37.4406134708
  H         2.3924592483        0.7603828814       16.6952224696
  H         3.8060079037        0.0952514314       17.2773892413
  C         2.1242175137       -0.4158406419       18.5066178691
  H        15.8979831083        1.0478513700       22.7397950384
  H        14.8087630510        1.2850694167       23.9648130916
  C        16.4639003873        2.7326239112       23.6469782629
  H        10.4308774715        9.6086499340       13.7334131831
  C        11.4409464780        8.2447979550       12.4639426548
  H         3.8129221911        0.2387735873       38.1020207455
  H         3.9917471793       -1.3225308682       37.4015313092
  C         5.8099021600       -0.2072546014       38.0508571752
  H         1.5033526590        0.0878072029       19.2019123594
  H         2.7483532252       -1.0121776313       19.0044518824
  C         1.3629029096       -1.3473429036       17.6559534234
  H        15.9960712989        3.4831974421       24.2851586043
  H        17.1880447828        2.1970747383       24.1808333142
  C        17.2145799782        3.4203988456       22.4466713213
  S        12.0530902976        6.6592116359       12.0860710449
  C        11.4625726629        9.2609664432       11.3682591567
  H         5.6914876550       -0.6686487518       39.0727116033
  H         6.5415803450       -0.8051897900       37.5020118084
  H         5.9751938278        0.7927738961       38.1135289903
  H         1.2564550342       -2.3672069340       18.1775059684
  H         1.8567575230       -1.4900853321       16.7138562186
  H         0.3768234788       -0.8958505051       17.3145466539
  H        18.3152607290        3.4329794764       22.6872172675
  H        16.9160570720        4.4235526755       22.2106001838
  H        17.2028084082        2.6704090306       21.6493029330
  C        12.5321434115        7.4550802302       10.5056509500
  N        12.1172434846        8.7486824437       10.3248501209
  O        11.0048198568       10.3665586994       11.4927985459
  S        13.3381331667        6.6107868238        9.1947674874
  C        12.3100351208        9.5183737413        9.0974670430
  H        12.6574829196       10.5361488710        9.2361360606
  H        13.0849859193        9.0226962994        8.5824931372
  C        10.9833085200        9.6035339554        8.2684389218
  H        11.1011988792        9.4123223651        7.1725943078
  H        10.2591161407        8.8377018231        8.5510126442
  H        10.5049403121       10.5581854772        8.3723131898
  H        20.9583436329       11.1578758459        3.3276634239
  C        21.4921510574       10.1747317807        3.4419786960
  H        20.7608629245        9.4413693906        3.7689249074
  C        22.5024064286       10.2258735263        4.6890732336
  C        22.1234553443        9.7154510473        2.1246341903
  C        21.8124693312       10.5074595813        6.0162927708
  H        23.1392262365        9.3532558538        4.7821707026
  H        23.2037543311       11.0506499808        4.5100327123
  H        22.5404164676        8.7894814515        2.1994094133
  H        22.9676069748       10.3205775316        1.7449625165
  H        21.4060791164        9.5755566538        1.3603721837
  C        21.0454718927        9.1911353041        6.4174869373
  H        22.5492896539       10.8594699440        6.6630431959
  H        21.2096705758       11.3904631129        5.7735845182
  C        20.3249414088        9.2068562161        7.7475789600
  H        21.8590657755        8.4853730349        6.6124539978
  H        20.3761652913        8.8337383207        5.6654389096
  C        19.0821050784       10.1531738566        7.6073830749
  H        21.0625424694        9.6753132949        8.4321935585
  H        19.9859908493        8.1837742594        8.1299007710
  C        17.8379384061        9.4392901176        6.9924620511
  H        18.8459184226       10.6052278571        8.6005918859
  H        19.3536404065       11.0192395194        6.9670777090
  C        16.6591845290       10.3619738892        6.7452214049
  H        17.5595960248        8.7201475096        7.6941074280
  H        18.0935372207        8.9997726020        6.0649963358
  C        17.0132247197       11.6675807987        6.0273584670
  C        16.3051017392       11.1133759268        8.0652975794
  C        15.4274658407        9.6478297026        5.9911123964
  C        16.8971446202       12.7742707756        6.8629208686
  C        17.5297528061       11.9963094334        4.7757681425
  C        16.3991995699       12.4390902149        8.0986439167
  C        15.7753061249       10.5333963535        9.1978362417
  H        15.7510706273        9.4216467867        4.9776154761
  H        15.1160088364        8.7802515919        6.5108869926
  C        14.0930883881       10.4207845091        5.9166881732
  S        17.3114680831       14.2604798697        6.0328400759
  C        17.6558304534       13.3635560205        4.6487190714
  H        17.7335233683       11.2149194504        4.0630757312
  C        16.0837011343       13.1731545328        9.2308096744
  H        15.5302099900        9.5070026709        9.1095384482
  C        15.5305004999       11.2389045150       10.3164260239
  H        14.1699552761       11.5392052613        5.8135455567
  H        13.5259795267       10.2391547887        6.8786086493
  C        13.1995491324        9.9185058146        4.8119557199
  C        18.0048135009       14.1816756606        3.4438420704
  C        15.6771407912       12.5633713148       10.3881690971
  H        16.4078841712       14.1686933864        9.3585999987
  C        15.1653756308       10.8585995669       11.5979108664
  H        12.1239688257       10.0893481102        5.0553378860
  H        13.3832069209        8.7983840820        4.8048970207
  C        13.4645836818       10.4925958515        3.3955830837
  C        17.9411627296       15.5942187371        3.1496688483
  C        18.4149992548       13.4125903826        2.2655297081
  C        15.4355450872       13.3475362796       11.6812418397
  C        15.1971524053       11.9800477834       12.4125627562
  S        14.6322791496        9.4885273436       12.4058294627
  H        14.5631487327       10.7729900773        3.4572156023
  H        12.9017298076       11.3824267148        3.1487642874
  C        13.0837808278        9.3841578588        2.4760334124
  N        17.7136220695       16.5273762867        4.2205428656
  C        18.2069063912       16.2387847490        1.9724483903
  C        18.8219327058       14.1000611997        1.1314484457
  H        18.6773425493       12.3434106145        2.3484824768
  C        14.1883805362       14.2113216947       11.5494218878
  C        16.6255405476       14.1670222556       12.1955423256
  C        14.7951918087       11.6029076164       13.7578084249
  C        14.4889947380       10.2648932296       13.9131900187
  H        13.8693262833        8.7042115341        2.4170872102
  H        12.2220809061        8.9415540263        3.0197081414
  C        12.7027736242        9.9462507090        1.0201068698
  S        17.8068052896       18.0087936523        3.6298253440
  N        18.0273984867       17.6486946084        2.1246834638
  C        18.7028293803       15.5579869201        0.8271966672
  H        19.3081481078       13.4736574377        0.2908981013
  H        14.3464264915       14.8979405688       10.7709394629
  H        14.0632252433       14.8602492344       12.3977056077
  C        12.9013600136       13.4553678939       11.2984679890
  H        16.8681770480       14.9179226482       11.4509729250
  H        16.4215591636       14.8380402751       13.0424408330
  C        17.9254175334       13.4147162759       12.4814511533
  H        14.6496498677       12.4266828363       14.4133169868
  C        14.1982265124        9.5801653135       15.2372464435
  H        13.6730257903       10.1951905487        0.5789078307
  H        12.0307200219       10.8056525680        1.0588641485
  C        12.0431440364        8.8594349511        0.0996686114
  C        19.0595270439       16.1777132680       -0.4468494803
  H        13.0577541251       12.7125957205       10.5301181826
  H        12.6345740844       12.8858550010       12.1846828391
  C        11.6775890922       14.2399338295       10.8201345916
  H        18.1815189446       12.6559484209       11.7351603712
  H        17.6537422167       12.7262874075       13.3459352768
  C        19.0012816397       14.2940224852       12.9687086879
  C        14.0091785645        8.1615704642       15.4553225523
  C        13.9726486183       10.3595895052       16.4922882768
  H        12.6998541649        8.0036350127        0.1904814997
  H        11.0774240005        8.5018922957        0.4664661665
  C        11.8959057157        9.2299728749       -1.4097445461
  H        19.1402611686       17.2435426416       -0.3529326111
  C        19.3355981728       15.7813982847       -1.7120211530
  H        11.8853053613       15.1438227220       10.1719488364
  H        11.2475979506       14.7614335533       11.7099337151
  C        10.5582523647       13.2939045199       10.2487071925
  H        19.0623491620       15.1678128437       12.2945729788
  H        18.6976651672       14.6896636633       14.0115905353
  C        20.4072775668       13.5998106633       13.2726016030
  N        14.3290138042        7.2402221252       14.4176171378
  C        13.7403709007        7.5350167750       16.6515462327
  C        13.5584048340        9.7619697424       17.7220044363
  H        13.8778929852       11.4788203801       16.4007434901
  H        12.8712148454        9.5777838228       -1.6032728878
  H        11.0962289663        9.9807101685       -1.6040457480
  H        11.6648937843        8.4175705870       -2.0298663690
  S        19.7981418348       14.1745086939       -2.0981671696
  C        19.3996222851       16.7944089500       -2.7753851518
  H        10.8298131230       12.7276259872        9.3368143785
  H        10.2264154513       12.6875662599       11.0910375299
  C         9.3438636829       14.0446493957        9.9954938552
  H        20.9865275958       13.2270544842       12.4609214873
  H        20.1637214773       12.8014793920       13.9996175099
  C        21.3432279926       14.4555176831       14.0643437750
  S        14.1415728412        5.7107661111       14.9883494947
  N        13.7689136725        6.1421109507       16.4989742741
  C        13.4587862288        8.2490207073       17.8489368215
  H        13.3619298590       10.3582608363       18.5456390494
  C        19.7581948186       14.8350262622       -3.8084374151
  N        19.6749112307       16.1968715725       -3.9484922473
  O        19.1378732155       17.9698948090       -2.6243572192
  H         8.9298222452       14.3894507358       10.9290131541
  H         9.6769966252       14.9554127527        9.5679786050
  C         8.3312594810       13.1553690675        9.2467006525
  H        21.1493566196       14.2982271145       15.0604556234
  H        22.3994718426       14.1526395130       14.0933472951
  C        21.1802484198       16.0014995168       13.8890237982
  C        13.0931088068        7.4754028632       18.9440377984
  S        20.0060149599       13.8151152511       -5.2428290901
  C        19.4816022592       16.8702693797       -5.2403359794
  H         8.7781409486       13.0867685794        8.3040416008
  H         8.2663035500       12.1877187492        9.6153873148
  C         7.0345755091       13.8824579491        9.1589117973
  H        20.1360656926       16.3280848410       14.1630653799
  H        21.3242856765       16.1223137794       12.8042904009
  C        22.1374264172       16.8862504076       14.5890403672
  H        13.2166149014        6.4657557303       18.6950641761
  C        12.6781845070        7.7695758955       20.1797127788
  H        20.0544526252       16.3379884218       -5.9877580165
  H        19.8754857431       17.8872165981       -5.2072129393
  C        17.9670490440       16.7445822254       -5.6260361957
  H         6.5915218545       13.5319262001        8.1655093682
  H         7.2324680047       14.9792119501        9.0173435775
  C         6.0646377440       13.5577444365       10.3430182513
  H        23.1487295803       16.5928229094       14.4162384540
  H        22.1363696466       17.9193900285       14.1815483690
  C        21.8072232088       16.9959387120       16.0418097394
  S        12.3540693608        9.3106722336       20.8444991597
  C        12.4533995218        6.6200326362       21.1470487330
  H        17.9278355430       16.8257925201       -6.7199154301
  H        17.4217026168       17.6392197695       -5.2721368415
  H        17.5323545986       15.7310685671       -5.2577691042
  H         6.0247413134       12.5017052079       10.5631360797
  H         6.2325549631       14.0981054998       11.2532275843
  H         5.0146094118       13.7692779008       10.1764707510
  H        21.8790533266       16.0706399048       16.6123536467
  H        22.5166602870       17.5353702938       16.6688501930
  H        20.8736098201       17.5493321485       16.3535311873
  C        11.8657554203        8.4468031292       22.3343706291
  N        11.9221183983        7.1174035815       22.2652850100
  O        12.6980377249        5.4583731230       20.8718132176
  S        10.7481234172        9.0335233292       23.5212025717
  C        11.6301205597        6.1966042674       23.3984860624
  H        11.4460480399        5.2042257199       23.0263379770
  H        10.7070922154        6.4913740052       23.9719375036
  C        12.9009468125        6.0929645037       24.2072605252
  H        13.6978439254        5.5950403533       23.7187245764
  H        12.6842861874        5.4241538842       24.9692799152
  H        13.1977547581        6.9880521190       24.7797267602
