352
 i =    96000, time =    96000.000, E =        25.0054563181
  H         9.8013401502        5.7883307934       31.1354285464
  C        10.5292173700        6.4768730123       31.6494234536
  H         9.9686039763        7.2192850386       32.2210390849
  C        11.4290991696        7.2834203115       30.6970633009
  C        11.3396811799        5.6836508295       32.7288021975
  C        12.0123975867        6.3776001900       29.4963035433
  H        10.8916214174        8.1095552307       30.2453534373
  H        12.1910098502        7.7455033331       31.2596949789
  H        12.1439680665        5.1165363770       32.1976414259
  H        11.8244404700        6.3105449767       33.5514822144
  H        10.6677147681        4.8563885452       33.0760208851
  C        10.8377365770        5.6970109530       28.7405551000
  H        12.6329618094        5.6496174625       29.8996849235
  H        12.6642369783        7.0178266239       28.8943457931
  C        11.2009712314        5.6575966176       27.2239896629
  H        10.8860508705        4.6505115880       29.1591451390
  H         9.8821933652        6.2040992600       28.8950722081
  C        10.1025860372        4.9919388745       26.3707367314
  H        12.1098419211        5.1200799420       27.1567003502
  H        11.2920069807        6.6719072578       26.8770232338
  C         8.7849259402        5.8607358578       26.0959268991
  H        10.5153446194        4.7141878797       25.3724086746
  H         9.9040584323        4.0674131758       26.7950967195
  C         7.6130163991        5.1355636615       25.3525166359
  H         8.5485357834        6.2044935946       27.0407748735
  H         9.1019347972        6.6665783274       25.4480431755
  C         7.1471751402        3.7290588898       25.9776071957
  C         8.1297250310        4.3153940548       24.1437988019
  C         6.3318835551        5.9731699312       24.9039269608
  C         7.4166466363        2.5821206244       25.2350024042
  C         6.5100081529        3.3879689634       27.2049080416
  C         7.9771940026        3.0021701483       24.0288743891
  C         8.7099220359        4.9567581177       23.0283279721
  H         5.6037092697        5.2852164812       24.3952774649
  H         6.6974301362        6.6745197298       24.2520375181
  C         5.3990406313        6.4845114884       26.0268221311
  S         7.0651831158        1.1228786693       26.0141962679
  C         6.4649217139        1.9981100579       27.3958633962
  H         6.1319265353        4.1844362434       27.8349009592
  C         8.4007036789        2.3947399161       22.8386683854
  H         8.7961765089        6.0172048902       23.0787286285
  C         9.0608645545        4.3373166475       21.8802513921
  H         5.1966856044        5.7419787541       26.7279952612
  H         5.9479503577        7.3909041317       26.3877156206
  C         4.0942334744        6.9319117417       25.3791110426
  C         5.9782140540        1.2918885825       28.6413871138
  C         8.9362965785        3.0193959338       21.7184071320
  H         8.3546965071        1.3481807205       22.7887969259
  C         9.4393353952        4.6872602350       20.6647235587
  H         3.7245743500        6.1762736609       24.6397245833
  H         4.2021923785        7.8596962188       24.7825407428
  C         2.9930931606        7.1270562292       26.4775849673
  C         5.9688778060       -0.0771035827       29.0099293407
  C         5.5223946753        2.1355707829       29.7696604798
  C         9.3432820969        2.2701275993       20.5124160439
  C         9.5582313042        3.6124190832       19.7726079792
  S         9.7215348119        6.2150878583       19.8668362332
  H         2.2920758037        7.8000737863       25.9815029896
  H         3.3497103746        7.6469343890       27.3980798826
  C         2.3570483607        5.7274593023       26.9018530773
  N         6.2667375691       -1.1280982066       28.0720417093
  C         5.7422952801       -0.5889905620       30.3050611041
  C         5.1388266743        1.6412452911       31.0397600384
  H         5.3403221030        3.1579660303       29.5387490754
  C         8.1367578706        1.4258493924       19.8640621058
  C        10.6463294067        1.4979006246       20.7592383871
  C         9.9143155628        3.9944290568       18.4535833741
  C         9.9974394443        5.3637861569       18.4010464214
  H         1.5788088465        5.6375757027       26.1100139114
  H         3.0336041169        4.8689477744       26.8020888725
  C         1.5344924369        5.5967013487       28.1958489845
  S         6.4919055947       -2.4905488752       28.9243504229
  N         6.0666690762       -1.9453192273       30.4241618693
  C         5.3658663003        0.2419684297       31.3383592960
  H         4.5527587194        2.2627258935       31.6964131523
  H         7.7412665269        0.6432401340       20.5346224572
  H         8.4520723643        0.7460409714       19.0887627790
  C         6.8571686270        2.2251124113       19.5676210902
  H        10.9190727784        1.0785948194       19.8479030132
  H        10.4432419569        0.7428771840       21.5593484190
  C        11.8275705399        2.4243664825       21.2476225789
  H        10.0146454381        3.2247114900       17.7335643663
  C        10.3068264921        6.1955383663       17.2392902215
  H         0.7739740227        4.8835671793       27.9984468366
  H         1.0530561444        6.5549226677       28.3110417704
  C         2.4394722028        5.3767485563       29.4346780155
  C         5.1754147684       -0.3054101346       32.6032685498
  H         7.0368203021        3.0709194034       18.9189204728
  H         6.4172032810        2.6308011415       20.5443481346
  C         5.7044870470        1.4458839924       18.9303782064
  H        11.5813236402        2.9012782842       22.1825414883
  H        12.1101107312        3.1400966971       20.5256054774
  C        13.0373498919        1.6202785224       21.5407132669
  C        10.3073354740        7.6746297828       17.0908026872
  C        10.6120718950        5.4653487575       15.9790954206
  H         2.8992648469        4.4244374440       29.4042305030
  H         3.2442963543        6.1392693695       29.4684473118
  C         1.6183098847        5.5229989044       30.6715657568
  H         5.1581771520       -1.3938460207       32.5825693485
  C         4.8212405070        0.2214566525       33.8109870741
  H         5.4497963851        0.5928350406       19.5000511740
  H         6.0716387869        1.1439847343       17.9374593588
  C         4.4731243786        2.3400359648       18.5598912313
  H        12.8341753755        0.8926873140       22.2757123304
  H        13.3714281861        1.2502010208       20.6004046743
  C        14.1371263455        2.4502067594       22.1783794274
  N        10.0270712900        8.5893437789       18.1897146025
  C        10.5947893734        8.3191495535       15.9111589870
  C        10.8874400542        6.1133921085       14.8100762475
  H        10.5697518401        4.4142518466       15.9785528251
  H         0.6882295997        4.9194408716       30.5585930521
  H         2.2033207029        5.1171854710       31.4675722916
  H         1.3877747707        6.5418891564       30.8459623375
  S         4.4843090958        1.8510924322       34.2590517455
  C         4.7602776119       -0.7776738182       34.9012044126
  H         4.4999181634        3.2345401930       19.2362285482
  H         4.6319785018        2.8296675581       17.5337618911
  C         3.1211409048        1.6590892441       18.5377391505
  H        13.7585914427        3.2534209864       22.8778601859
  H        14.8423036576        2.8379269835       21.4135595443
  C        15.0567054791        1.5788070498       23.0962839160
  S        10.0538875835       10.0586367110       17.5010513678
  N        10.5678837268        9.6756264773       16.0157428746
  C        10.9611481267        7.6001025751       14.7417472115
  H        11.0323851233        5.5260133395       13.9636559012
  C         4.3657935677        1.2555588321       35.8983660501
  N         4.4941754398       -0.0631502890       36.0763813124
  O         4.9339280409       -1.9849435027       34.7913934689
  H         2.2033852685        2.1960633457       18.1006746109
  H         2.8650248330        1.3999557179       19.5777243233
  C         3.1664927324        0.3184073935       17.7026490812
  H        14.3711677674        1.2021103708       23.8327940959
  H        15.4915616142        0.7714911812       22.5063574655
  C        16.0334812929        2.5525241898       23.8377634455
  C        11.1559393975        8.3613182885       13.5947127578
  S         3.9562434616        2.2525496173       37.1833909867
  C         4.2984766126       -0.7064333176       37.3625419728
  H         3.1930194880        0.7054086311       16.6454569005
  H         4.1086140813       -0.2266139432       17.8119576750
  C         1.9984673198       -0.5631180620       18.0762974519
  H        15.6074652743        2.7603917413       24.8876250550
  H        16.0948257452        3.5235933707       23.3408052736
  C        17.4530045775        1.9547911344       23.9972891469
  H        10.9359861974        9.4403754710       13.7587428309
  C        11.6336945958        8.1215961059       12.3659812071
  H         3.7812428070       -0.1503635263       38.2135081667
  H         3.4647708192       -1.4480578337       37.3051924938
  C         5.6155906358       -1.3831221997       37.8918494640
  H         1.6413170380       -0.9749229600       17.0431007933
  H         1.2329096991       -0.0816187884       18.5348020686
  C         2.4808941144       -1.7186270484       18.9662641623
  H        18.0068782512        2.5111096600       24.7574323323
  H        17.3828814943        0.9569615057       24.3649826191
  C        18.3062361426        2.0712788841       22.7334831270
  S        12.1874607310        6.6013589490       11.7309215794
  C        11.7580285495        9.2454641635       11.3936094475
  H         6.4269398553       -1.1425836323       37.2994921704
  H         5.8958882603       -0.9883230374       38.8468386363
  H         5.6015552403       -2.3970149289       38.0062897540
  H         1.6448018393       -2.4582463320       19.0686094471
  H         2.6978212260       -1.4442434379       20.0435474323
  H         3.3613739274       -2.1776167230       18.5288125409
  H        19.3144490507        1.8772984159       22.9811357866
  H        18.2960659529        3.0506710127       22.2003812266
  H        17.9379495961        1.3960297604       21.9550058212
  C        12.6032616829        7.4861488825       10.2797066820
  N        12.4104481469        8.7773741139       10.2875288614
  O        11.4546839560       10.3812089889       11.6395237523
  S        13.6292673442        6.8556577717        9.0837779123
  C        12.4146694797        9.5591476884        9.0414640690
  H        12.5574350627       10.6055189948        9.3216469918
  H        13.2621099633        9.3511118273        8.3220180915
  C        11.0832628361        9.4245131905        8.1950799525
  H        10.2184973646        9.1805631909        8.7633509916
  H        10.8611562070       10.4315781302        7.8355822156
  H        11.1724044324        8.6953835555        7.3983211590
  H        21.6968046278       11.6989390616        3.6575066114
  C        22.2201510526       10.7086893552        3.6389214623
  H        21.5431448992        9.8163754381        3.5510189064
  C        23.1685919579       10.5655641387        4.8196741145
  C        23.0220302301       10.6997866720        2.3741906745
  C        22.4552490672       10.5604170289        6.1960712713
  H        23.7516938345        9.6276329838        4.7178684592
  H        23.8264321423       11.4613624230        4.7283249638
  H        23.3761038445        9.7646765546        2.2027087901
  H        23.8755960836       11.3223973650        2.3742579581
  H        22.2848801623       10.8631121847        1.5711754567
  C        21.9330476648        9.1925936690        6.6279940206
  H        23.2572686919       10.8595116362        6.8751938816
  H        21.7201122674       11.3290533502        6.4071300029
  C        20.6226450534        9.2359112064        7.4515954618
  H        22.7109730987        8.6274609205        7.2024092332
  H        21.8165595002        8.5549149117        5.7383354987
  C        19.3730043776        9.6063515122        6.6246379915
  H        20.7955784776        9.9035834676        8.2932488440
  H        20.4895397572        8.3164382778        7.9845955011
  C        18.1788150834        9.9630296054        7.5050280816
  H        19.6043281010       10.4763667004        6.0443167252
  H        19.1131205630        8.8543166676        5.8008590924
  C        16.9783801737       10.7640228091        6.9168281005
  H        18.6495805790       10.6810585561        8.2348465000
  H        17.8978776083        9.0982581317        8.0871307911
  C        17.4274103257       12.1199241899        6.2849874487
  C        16.4866046155       11.5231202764        8.1238315173
  C        15.8979517039        9.9194134870        6.1084392830
  C        17.0711738265       13.2482554622        7.0431688275
  C        18.0200373045       12.5668818928        5.1301893110
  C        16.6146230081       12.8619194456        8.3332448640
  C        15.9591865010       10.8332648145        9.1849833072
  H        16.4007883635        9.1691386444        5.5021824769
  H        15.4967151499        9.1514385896        6.8091261658
  C        14.8216759617       10.7091641226        5.4218477217
  S        17.3890994248       14.7897922570        6.2937339408
  C        18.0570353193       13.9563519553        4.9825593315
  H        18.4208460129       11.8850968594        4.4133099958
  C        16.1894872574       13.3743334478        9.5388521333
  H        15.7443265064        9.7831054366        8.9928777227
  C        15.6092294289       11.3505328786       10.4180511018
  H        15.3548680101       11.5095868874        4.7996854120
  H        14.3004630613       11.1935337692        6.1764905383
  C        13.9438790859        9.7993430692        4.5354046226
  C        18.5923090184       14.6820464351        3.8386227539
  C        15.7622574328       12.6269339360       10.6357920629
  H        16.2688649784       14.4078337940        9.7727308294
  C        15.2011996215       10.8841121283       11.6010851911
  H        12.9105260951       10.0504478591        4.5538802131
  H        13.9475017488        8.7535031288        4.8243726457
  C        14.4182973269        9.8369503220        3.0192841688
  C        18.3333783166       16.0291660085        3.4581597106
  C        19.0390935424       13.8590771035        2.6987461008
  C        15.4380351485       13.2525869175       11.9470515811
  C        15.1274287236       11.9393294827       12.5181980865
  S        14.9569415525        9.3875637398       12.3245566787
  H        15.2774756233        9.1679523619        2.9139317588
  H        14.6753289942       10.8534450419        2.8054720410
  C        13.2577438187        9.5597233378        2.0335122231
  N        18.0260621676       17.0372135414        4.4030700940
  C        18.6833995003       16.5787594303        2.2220013277
  C        19.2756091197       14.3802279756        1.4464369435
  H        19.1555516429       12.7701693200        2.7952092742
  C        14.1196246122       14.1876971675       11.8637065198
  C        16.6930901650       13.8205546086       12.6526922970
  C        14.7468334681       11.5187697590       13.7857600715
  C        14.5422404452       10.1753616813       13.8752949094
  H        12.9611340256        8.4851571116        2.1579117843
  H        12.4055516060       10.1628930218        2.3230106534
  C        13.6177087544        9.8461437887        0.5725128763
  S        18.1253029550       18.4695089289        3.6426250043
  N        18.4686415941       17.9697821039        2.1305132424
  C        19.0431799225       15.7624831399        1.1087774279
  H        19.5393377885       13.6634468674        0.7149922096
  H        14.3267588619       15.0734442088       11.3181006713
  H        13.8491945948       14.4437738837       12.8614473662
  C        13.0263551879       13.4935531763       11.0376357425
  H        16.9663927639       14.8054267951       12.2121244169
  H        16.5533301163       14.0660847101       13.7193369798
  C        17.9935489467       13.0158360782       12.6420777287
  H        14.6692826755       12.3309932422       14.4809259044
  C        14.1278311515        9.4273517316       15.1194734259
  H        14.5671425229        9.3495142878        0.2813080368
  H        13.6764894814       10.9331263035        0.5628612633
  C        12.5461095388        9.2925074990       -0.4224638023
  C        19.2121107857       16.4073286232       -0.1765147434
  H        13.3310835351       13.0385009050       10.0767272096
  H        12.6043689965       12.6407908388       11.5377698455
  C        11.7897098374       14.4708983023       10.8990575043
  H        18.4588921932       12.9581180317       11.6391040346
  H        17.7179502260       11.9733811989       12.7375672340
  C        18.9736623898       13.3300216592       13.7753909192
  C        14.2243807074        8.0421790440       15.3801009417
  C        13.8033392994       10.2226424947       16.2838140264
  H        12.7515396354        8.3571047459       -0.8787496798
  H        11.5712537878        9.2603209559        0.1258771304
  C        12.2105152682       10.2468058693       -1.5371047210
  H        18.9248334354       17.4600290139       -0.1938771894
  C        19.5617350785       15.9309208869       -1.4202270300
  H        12.0836648688       15.5022790091       10.5538197910
  H        11.4335316539       14.6488931230       11.9324464537
  C        10.7950865095       13.8099066454        9.9415128288
  H        18.4062164291       13.5400408702       14.6449565357
  H        19.5831261468       12.4470539992       13.9713229516
  C        19.8177157254       14.5069674890       13.4991980825
  N        14.5604688505        7.0686756807       14.4863836261
  C        13.9279943949        7.4486716789       16.6399212761
  C        13.6510461407        9.6499430603       17.5485027893
  H        13.7251458722       11.2953058686       16.2201558370
  H        11.7494821576       11.1981516770       -1.2261525790
  H        11.4240289060        9.7554443455       -2.1335818030
  H        13.0891993597       10.3484784528       -2.1035019223
  S        20.0333630441       14.2699990596       -1.8718233202
  C        19.4320657061       16.8923244782       -2.5468384502
  H        10.3306373141       14.6193469510        9.3720291790
  H        11.3593486689       13.1125320917        9.2738138743
  C         9.6771589540       13.0615207803       10.7499409109
  H        19.2050425950       15.3601218407       13.1427817059
  H        20.4212896075       14.4445910450       12.5697921460
  C        20.6716241491       14.8227143967       14.7363369248
  S        14.5735976798        5.6154389804       15.1326170947
  N        14.0203700377        6.0396721864       16.5612466994
  C        13.7078570134        8.2182575663       17.8091883718
  H        13.4719619105       10.3300333073       18.3445662957
  C        20.2358418313       15.0151227445       -3.4902034412
  N        19.9373815060       16.3295712723       -3.6299427189
  O        19.0155741733       18.0586227342       -2.3554922232
  H         9.3737310145       12.2942982498       10.0643519244
  H        10.0072405850       12.4771861645       11.6385481670
  C         8.4470618015       13.9279049575       11.1768503089
  H        20.0046206832       15.3144319274       15.4198765856
  H        20.9525344292       13.8167098410       15.0870793070
  C        21.8962251716       15.7075609705       14.4968036948
  C        13.3727211933        7.5433419258       19.0520642987
  S        20.8089606999       14.2049104175       -4.9216381185
  C        20.0286951986       17.0754610112       -4.8630573161
  H         8.0646185686       13.7023131711       12.1207908237
  H         8.8831421199       14.9418447735       11.1447293324
  C         7.3348364569       13.9291576319       10.1068824229
  H        22.5110214837       15.2125947846       13.7342327323
  H        22.4815658088       15.7241146372       15.4059422003
  C        21.5013623119       17.0707336534       14.0028980014
  H        13.6339243230        6.5191964782       18.9151584819
  C        12.7871254831        7.9046504687       20.2712008681
  H        20.9432770208       16.8531292051       -5.3266495622
  H        20.1759554020       18.1027932422       -4.4968256746
  C        18.8173087631       16.8619303510       -5.7715550771
  H         7.5683814319       14.2704878764        9.1247642305
  H         6.5361292358       14.4647722407       10.5166966777
  C         6.6801292660       12.5880980093       10.0635644194
  H        22.3573154126       17.4644837587       13.5458461295
  H        20.7538074720       16.9857274996       13.2453697150
  C        21.0767399632       18.0183436792       15.1275111757
  S        12.3303927590        9.5117204599       20.6804741186
  C        12.5991229258        6.7792907209       21.1534624902
  H        18.1648446588       16.0299431125       -5.5105608095
  H        19.2197329090       16.7638717010       -6.7802566742
  H        18.2893262955       17.7903908865       -5.5683292322
  H         5.6561241126       12.7559127656        9.7047830014
  H         7.0482053289       11.8662643245        9.3369395859
  H         6.7285716363       12.1189484133       11.0418336403
  H        21.8407230040       18.0705223407       15.9063420827
  H        20.9663580058       19.0528771165       14.7478473401
  H        20.1509126385       17.6403812913       15.5763940806
  C        11.9484409688        8.7293235548       22.2599353986
  N        12.0014408770        7.3661793821       22.2466834131
  O        13.0892140930        5.5909310121       21.1305994657
  S        11.4352138998        9.5989718686       23.6963335219
  C        11.8220337345        6.4868865165       23.4691282956
  H        11.6070444577        5.4598198432       23.1625987853
  H        11.0808423485        6.9390593440       24.1700867201
  C        13.0594847276        6.2890354174       24.3124005790
  H        13.9496658850        6.5655059569       23.7193389626
  H        13.1994530937        5.2929731903       24.7565045728
  H        13.1188761543        7.0052965281       25.1684909031
