352
 i =    51300, time =    51300.000, E =        24.8599042915
  H        11.4665025426        7.8466406373       32.0594572804
  C        11.4208122369        6.7465105388       32.2305428055
  H        12.4380695581        6.3485128130       32.1598394682
  C        10.5528765848        5.9136335082       31.2520669180
  C        11.0858457190        6.4136194083       33.7085551730
  C        11.0593497426        6.0856131686       29.7753273224
  H        10.6754426258        4.8866476900       31.5805100642
  H         9.4666857374        6.1337317140       31.3268175506
  H        10.0135567436        6.7569027367       33.7738686485
  H        11.1859452746        5.3410722048       33.8473858169
  H        11.8476994788        6.9460946207       34.3565655665
  C         9.9212078751        6.1975175352       28.8168475445
  H        11.7849665166        5.2553779976       29.5966941635
  H        11.6895747231        7.0086577464       29.6655630751
  C        10.3517107832        6.1559506316       27.3163841188
  H         9.3253304629        5.2628376178       28.9602149735
  H         9.2140542938        6.8990545670       29.0445729426
  C         9.6029423982        5.2599026016       26.3563417551
  H        11.3824401707        5.6738080571       27.2590090223
  H        10.4567532633        7.1848026643       26.8878049690
  C         8.3910174298        6.0686538509       25.9584610263
  H        10.3041611979        5.1344999058       25.5600139394
  H         9.3396911126        4.2838301856       26.6945866955
  C         7.2601479823        5.1751206530       25.2986650560
  H         7.9436184855        6.4084201681       26.8726500854
  H         8.5710205072        6.9444275870       25.2450946116
  C         6.9823029102        3.8814107660       26.0529236466
  C         7.7013425073        4.4070471800       24.1415091492
  C         5.9897116000        5.9961470798       25.2030469976
  C         7.2974150943        2.7514924776       25.3356125112
  C         6.4730929339        3.5452145721       27.3026633283
  C         7.5985671430        3.0514085051       24.0400770874
  C         8.2206704258        5.0856466316       23.0032276914
  H         6.1436722656        6.8727175458       24.5488888906
  H         5.6651433202        6.4426307735       26.1284378951
  C         4.7869958482        5.2835815087       24.6767282320
  S         6.9596541703        1.3102225336       26.0812162167
  C         6.4275485278        2.1839396766       27.5149055689
  H         6.1220848112        4.3162549125       27.9339450055
  C         8.1478704104        2.4826892566       22.9366919890
  H         8.3042918940        6.1610183003       23.1564732602
  C         8.6061924178        4.4749680932       21.8730277496
  H         5.0076779516        4.9155233469       23.6758073272
  H         4.4747952057        4.4567469116       25.3075286356
  C         3.5395817410        6.1894652170       24.4795249289
  C         5.9355822834        1.5281129086       28.7600338965
  C         8.6065996737        3.1619759655       21.7887252542
  H         8.1844972991        1.3833404818       22.8424336171
  C         9.0333122613        4.8546721559       20.6545783605
  H         2.8420666990        5.9627791054       23.7388020387
  H         3.9243098882        7.1986130467       24.2301498332
  C         2.6966382054        6.3798879189       25.7528423083
  C         5.7972483007        0.1211619559       28.9399191594
  C         5.7919150207        2.3454021880       29.9995428269
  C         8.9931099788        2.4343691236       20.5420916926
  C         9.3875367521        3.7597678989       19.8539221755
  S         9.4331879570        6.3696184370       19.9622877891
  H         1.8910915413        7.0213365760       25.4260863051
  H         3.3269947890        6.9333716129       26.4631091038
  C         2.1355442929        5.1622784418       26.4751533390
  N         6.1322958479       -0.8258512509       27.9610846177
  C         5.4457026851       -0.4228747018       30.1712567873
  C         5.3134793003        1.7835177648       31.1704969054
  H         6.0383881122        3.4033909642       29.9820667199
  C         7.7721086997        1.7917189726       19.9428891358
  C        10.3056590712        1.6090078509       20.6878112529
  C         9.8806282593        4.1545426478       18.6151929284
  C         9.8390085371        5.5186467966       18.4519700964
  H         1.2368490487        4.8021439800       26.0577625528
  H         2.8659028686        4.2975923706       26.5431245604
  C         1.5861693719        5.4407548156       27.8785200289
  S         6.0154452950       -2.2683327201       28.6476313240
  N         5.4400921516       -1.7929846541       30.0903035072
  C         5.1867959930        0.3105429008       31.3283653746
  H         5.1847818424        2.5115720850       31.9710943480
  H         7.5115103870        0.9314804137       20.5850737740
  H         8.1655499892        1.2541760496       19.0684798220
  C         6.5100482640        2.5720616284       19.4397218773
  H        10.4751267929        1.1989981007       19.7365588836
  H        10.0055034201        0.7208778729       21.2705392986
  C        11.5463858653        2.3641967323       21.2047190524
  H        10.1382133991        3.3797119870       17.9373692673
  C        10.1217512150        6.2082988795       17.1539761838
  H         0.6640162197        4.8581822748       28.0919462499
  H         1.2646113346        6.4666445972       27.9499013708
  C         2.5847096469        5.1633074363       28.9076686874
  C         4.8935086302       -0.3372614693       32.5401825138
  H         6.8284284024        3.2401734973       18.6888297110
  H         6.0478098755        3.1563761240       20.3127554038
  C         5.4240387232        1.6126717308       18.8715395858
  H        11.4584088516        2.4219910974       22.3367802219
  H        11.7403859575        3.3399556055       20.8211794877
  C        12.8294998715        1.5872495737       20.7151899088
  C        10.0874965152        7.6152283219       17.0141912376
  C        10.3725336960        5.3636957175       15.9342191278
  H         3.0732907757        4.2243748626       29.0189100528
  H         3.3776345305        5.8499891581       28.5480290014
  C         2.0954558214        5.7697499401       30.1863988860
  H         4.8900244728       -1.3810028633       32.4231059665
  C         4.5840358057        0.1362565999       33.8173424987
  H         5.0973180865        0.8711950315       19.6909919941
  H         5.9899030815        1.0007587389       18.1833686661
  C         4.1406148849        2.1915430809       18.3212634777
  H        12.8918930721        0.8512987376       21.4855875679
  H        12.6247847966        1.1450789283       19.8164106170
  C        14.0532849278        2.4933526341       20.6257811989
  N         9.8540061411        8.5774320848       18.0578408895
  C        10.4158285645        8.2634234255       15.8791729074
  C        10.5978187092        6.0207430680       14.7257374909
  H        10.4668070980        4.2856438322       15.7693255533
  H         2.9423880482        6.0744654317       30.7937853083
  H         1.4663677918        6.6243198222       29.9851114187
  H         1.3631032955        5.0000051031       30.5995076662
  S         4.3863128767        1.7802706283       34.3892459338
  C         4.3458086733       -0.8557784741       34.8751212564
  H         3.8308858362        3.0688654705       18.8441666358
  H         4.2881268552        2.3123466079       17.2394749046
  C         2.9889647792        1.1648554102       18.3720549720
  H        13.7501034619        3.4173537917       20.2193468219
  H        14.7320828199        2.0247796910       19.9328703164
  C        14.6593320975        2.9003819085       22.0040979033
  S         9.9442432714       10.0736361179       17.4630523103
  N        10.3401826433        9.6295422371       15.9458631660
  C        10.7106288082        7.5004317850       14.6717059414
  H        10.8670957502        5.4179100844       13.8941117849
  C         4.2651363071        1.1565767041       35.9682189674
  N         4.1946776043       -0.2091614287       36.0525091224
  O         4.5587214019       -2.0414784921       34.6891555039
  H         2.1255835571        1.6315737248       18.0461032040
  H         2.7923105154        0.8700014753       19.4431028890
  C         3.2667006705       -0.0800276548       17.4993008561
  H        15.3950080220        3.6251675881       21.8172708680
  H        13.9140506056        3.2259511596       22.6921223068
  C        15.4688141412        1.7089875832       22.5692623745
  C        10.9394119412        8.2297246043       13.5069839418
  S         3.7882014409        2.0016528126       37.3368423940
  C         4.1079455351       -0.9281280968       37.3201387738
  H         3.7217317506        0.3277542799       16.5975305233
  H         4.0378472285       -0.6985458811       17.9322460139
  C         2.1129979833       -1.0183577819       17.2917788340
  H        15.8954188398        1.2384235934       21.7107152711
  H        14.7422083775        1.0806343401       22.9535557953
  C        16.5143636744        2.1310844062       23.6242570962
  H        10.6793281693        9.3099295839       13.5238839292
  C        11.6715561504        7.9802951236       12.3656948491
  H         3.5913438161       -0.3886832465       38.1034055788
  H         3.6396880980       -1.9688265706       37.2418482811
  C         5.4527021850       -0.9260885136       37.9414740997
  H         2.6181955456       -1.9307133185       17.0592030520
  H         1.3548812701       -0.7572162112       16.5527674062
  C         1.4187902110       -1.2762981891       18.6775500756
  H        16.2773226112        2.9637260021       24.2060670257
  H        16.6535849505        1.3138685497       24.3486318546
  C        17.8935090984        2.4635495590       23.0642732516
  S        12.2209730196        6.4519770870       11.9166346638
  C        11.8624033099        9.0946168129       11.3476813374
  H         5.7648490623       -1.9319293088       38.3052130090
  H         6.1656660003       -0.6832028070       37.1480976297
  H         5.5900465224       -0.2207396881       38.7308529852
  H         0.9868855529       -2.2513410639       18.5808172290
  H         0.6735343491       -0.5107769635       18.9050639776
  H         2.1330206730       -1.3139706642       19.5027782623
  H        17.7160506762        3.2516165676       22.2763984993
  H        18.4550303222        1.6842740539       22.5849144024
  H        18.5113591740        2.8571613463       23.9438358817
  C        12.5664906719        7.2392751079       10.3564412182
  N        12.4464334838        8.5965772302       10.2581154090
  O        11.5855288074       10.2838551163       11.5506761535
  S        13.3391575803        6.3206528880        9.0858366223
  C        12.6186228234        9.3537593676        9.0342308053
  H        12.6873367060       10.4288149937        9.1960577303
  H        13.5677589510        9.0879989421        8.6356564827
  C        11.3973449109        9.1464316572        8.0869938186
  H        11.2363006836        9.9830354259        7.4930301230
  H        11.4580959891        8.2764319846        7.4938583661
  H        10.5524348568        8.8390285254        8.7068778845
  H        23.8324816215       10.4575455418        3.1737373315
  C        22.9852716138       10.6578036836        3.8548446479
  H        22.8694722860       11.7233560563        3.8995691919
  C        23.3023281113       10.1036748901        5.2032082110
  C        21.7780026197       10.1184283338        3.1577580780
  C        22.3249700652       10.5998780519        6.2917024577
  H        23.1672237229        9.0351558426        5.1161255410
  H        24.2846194430       10.3807685826        5.5084345857
  H        21.2202936168       10.8208816403        2.5296240980
  H        21.0214552557        9.6656805412        3.7825207720
  H        22.0685220525        9.3691853818        2.4332725971
  C        21.4179631874        9.4652723033        6.8299288554
  H        23.0218257075       10.9434077680        7.0872521308
  H        21.8374709679       11.4982453577        6.0204095220
  C        20.5739430332        9.8721422972        8.1164026555
  H        21.9820998637        8.5800402753        7.1962649906
  H        20.7969887032        9.0814069832        6.0655395384
  C        19.3516449006       10.7384196236        7.8875260542
  H        21.3281556984       10.3592771027        8.7547534604
  H        20.2514460958        9.0141130358        8.7631645783
  C        18.1066760517        9.9194419013        7.4181675565
  H        19.1287902825       11.2689718083        8.7703612243
  H        19.5836347687       11.5053283767        7.1477176629
  C        16.8916071787       10.7688248345        7.2049588151
  H        17.8481256926        9.1915114255        8.1645073462
  H        18.1862801387        9.4153168244        6.4594649409
  C        17.1893591538       12.1071971039        6.4864323488
  C        16.4635104031       11.4340462427        8.4134347506
  C        15.7790795423       10.0550485866        6.4686096180
  C        16.8491072342       13.1866596612        7.2412631293
  C        17.6616015262       12.4538354755        5.2130447832
  C        16.3464622859       12.8051150924        8.5262707485
  C        16.0656505822       10.7651471930        9.5683935348
  H        16.2767461426        9.6188269986        5.6189619562
  H        15.4184570085        9.1537927518        6.9950411146
  C        14.5407901027       10.9131773966        6.0847548143
  S        17.2774235009       14.7078515486        6.4763738597
  C        17.8187220468       13.8192996949        5.0509705540
  H        17.9057934300       11.6873624563        4.5235841358
  C        16.0150874909       13.4431747346        9.7334251682
  H        15.9571598624        9.7230730681        9.6560061451
  C        15.5813475601       11.4085576707       10.6900207065
  H        14.8644109321       11.9050644340        5.7317408079
  H        14.0270855562       11.0780238763        7.0021441598
  C        13.4957575672       10.3208202793        5.1491709444
  C        18.3082367996       14.5247465890        3.7826696757
  C        15.5624632576       12.7348783841       10.8291706434
  H        15.9524971218       14.4972098159        9.7658734511
  C        15.1971767750       10.9668066689       11.9072039708
  H        12.5456250427       10.7824468454        5.4733354237
  H        13.3384027497        9.2527310193        5.2634950647
  C        13.7802643931       10.6159402979        3.6839428963
  C        18.3384817389       15.9231951297        3.5776193421
  C        18.8636403282       13.6965020011        2.6074824546
  C        15.0697190998       13.3768362089       12.0668416478
  C        14.8157983353       12.0036977794       12.7139500294
  S        15.1076848005        9.4066157854       12.7230895493
  H        14.5840512844        9.9756070478        3.3919217877
  H        14.1010941189       11.6093708922        3.5433840378
  C        12.5424742390       10.3484162568        2.8549606219
  N        18.0111049790       16.8896620764        4.5340598231
  C        18.5946565889       16.5204533033        2.2981326434
  C        19.2970037655       14.3444455504        1.4454741454
  H        18.8567496117       12.6244536672        2.6257667378
  C        13.8405679738       14.1697339826       11.8870264347
  C        16.2617855884       14.1022549088       12.7245792717
  C        14.3351491189       11.5266494752       13.9319666931
  C        14.4334696665       10.1604184921       14.1062699907
  H        11.7736911789        9.8046364231        3.3984684719
  H        12.0206194292       11.3231827723        2.7302573075
  C        12.8769064381        9.5763411010        1.4981591809
  S        18.1571747672       18.3349985316        3.8737433774
  N        18.4769040369       17.8970367128        2.3310321473
  C        19.0198777722       15.7635054096        1.1688272656
  H        19.6808915673       13.6707543706        0.6809483663
  H        13.8428495031       14.9546544955       11.1416410512
  H        13.6235399434       14.8387605151       12.7525353133
  C        12.6054450843       13.3157212273       11.4163851582
  H        16.7255671326       14.6588938062       11.9861306696
  H        15.8474048972       14.7672205356       13.4668127218
  C        17.2520238559       13.2011117979       13.5329479249
  H        13.8881137750       12.2647080375       14.5815050920
  C        14.0289042811        9.4283226583       15.3678467599
  H        11.9411185024        9.2101883426        1.0772122856
  H        13.5130055429        8.6561824335        1.6816057313
  C        13.5539986044       10.4316285649        0.4153611014
  C        19.2879598062       16.4152639231       -0.0593782859
  H        12.8830855275       12.5816489131       10.6188812503
  H        12.2317739793       12.7693206173       12.2634318737
  C        11.4528468800       14.1837868153       10.9647821819
  H        17.8701751873       12.5763980127       12.8898593822
  H        16.7995964276       12.5432481376       14.2926799925
  C        18.2952952009       14.0962875797       14.1767300153
  C        13.8673179568        8.0755396249       15.4962659818
  C        13.8285149461       10.3125481028       16.5777978381
  H        13.2655038765       11.4304343158        0.4910789526
  H        14.5756054973       10.4764631614        0.5329561225
  C        13.1742829479        9.8344778971       -0.9568414036
  H        19.2387080051       17.4746676993        0.0097705920
  C        19.4334096376       15.9502646293       -1.3781969483
  H        11.7709928320       14.9751827266       10.2120767993
  H        11.1449334469       14.8656720615       11.7744321192
  C        10.3366586397       13.4227386181       10.2856259361
  H        18.4440855603       14.9051346907       13.4435183840
  H        17.7718161520       14.5418821914       14.9973482883
  C        19.4687715080       13.3205732055       14.7581734462
  N        14.1838377566        7.1230695923       14.5197701247
  C        13.6861350435        7.4909620290       16.7473469870
  C        13.5267852794        9.7148994728       17.8135574594
  H        14.0331638265       11.3612759249       16.4466683179
  H        12.0648261579        9.7791512388       -1.0718417622
  H        13.5999256447        8.8054398351       -1.1567009063
  H        13.3895089457       10.5236415138       -1.8249190222
  S        19.6305122480       14.3736520677       -1.9592177099
  C        19.6097973121       17.0839260185       -2.4032472851
  H        10.6377468994       12.6869413395        9.5940128620
  H         9.6402383260       12.8794352592       10.9983599138
  C         9.3648629983       14.2419556272        9.4649929026
  H        19.4377843523       12.1829300000       14.6743309777
  H        19.5356486111       13.5016919184       15.8697202316
  C        20.8601694187       13.8512489766       14.2790345653
  S        14.0608747612        5.6593766115       15.2033524481
  N        13.8339442272        6.0982550399       16.7046410701
  C        13.4555983513        8.1995959579       17.9578192583
  H        13.4434267107       10.3596498737       18.6079407399
  C        19.7995589606       15.1728105425       -3.5446636397
  N        19.9219244682       16.4999760185       -3.5585858626
  O        19.5830441208       18.2997283784       -2.1669860007
  H         8.7384060996       14.7852089450       10.0495565262
  H         9.7477981855       15.1298354305        9.0128082076
  C         8.4663038375       13.3037836629        8.6882887556
  H        21.6979118673       13.2155998428       14.5728057136
  H        20.8963684801       13.7732676351       13.1668496968
  C        21.0522642155       15.3848487262       14.7281281840
  C        13.1475991862        7.4074973993       19.0924408265
  S        20.3473405804       14.3408592476       -4.9466199059
  C        20.1558053435       17.4467756768       -4.6770817994
  H         8.9321524970       12.9027083430        7.7744964896
  H         8.2626268802       12.4961804934        9.3649891951
  C         7.0891272656       13.9785290196        8.3351746637
  H        21.8651064556       15.3772032467       15.4439962885
  H        20.1862273400       15.8650977268       15.2399940914
  C        21.5840107298       16.2091667244       13.5551815532
  H        13.5931153575        6.4135727972       19.1538733532
  C        12.7320806454        7.7734660019       20.3325115537
  H        20.8189475160       16.8904008641       -5.3816465359
  H        20.6271388555       18.3576632781       -4.3624095711
  C        18.8586084823       17.8713180466       -5.4221526630
  H         6.5261740927       13.2973866197        7.6887038181
  H         7.1882141533       14.8965504457        7.8494605437
  C         6.0926483696       14.0718603477        9.5223609061
  H        22.2934598418       15.6013752801       13.0774872641
  H        20.7548466748       16.5530758986       12.9639315783
  C        22.2594499599       17.5331418177       13.9412396818
  S        12.2409570564        9.3787235699       20.8252345767
  C        12.6734428915        6.7662709825       21.4042382295
  H        19.0635292523       18.7691293060       -6.0687333598
  H        18.1529606855       18.2172647719       -4.6375430516
  H        18.4663624762       17.0247870763       -5.9603470074
  H         6.3029753835       14.9079201674       10.2024551862
  H         5.0212391055       14.1189871272        9.2719946556
  H         6.2443963285       13.3080781045       10.2139768218
  H        21.4747258217       18.2542113799       14.1864939872
  H        22.8654594947       17.4376881884       14.8736655559
  H        22.7729310802       17.9386830844       13.1156771148
  C        11.9165183409        8.6635021374       22.3939976503
  N        12.0374787825        7.3203943672       22.4197901347
  O        13.0811564601        5.5807276438       21.3479789461
  S        11.0174993088        9.3978676123       23.7579095310
  C        11.8722111572        6.6421839837       23.7251554101
  H        11.8589125937        5.5858701001       23.5054809063
  H        10.8520520800        6.8221544671       24.2321039090
  C        13.0218332997        6.7940945362       24.6344532709
  H        13.5303946787        5.7933830716       24.7105451826
  H        12.6469745066        7.2030677377       25.5644192750
  H        13.6392289118        7.5615105937       24.1612472462
