352
 i =    27700, time =    27700.000, E =        24.6453180296
  H        10.8015924215        6.9471453757       31.9303502386
  C        11.0316749894        5.9155408002       32.0778783282
  H        12.1796436370        5.8771675241       31.8676963696
  C        10.2530644515        5.2004392064       30.9898933838
  C        10.6850142523        5.5590859438       33.5242117707
  C        10.5748652680        5.9127902572       29.6762571779
  H        10.6177331422        4.1808667134       30.9429742543
  H         9.1787599396        5.0843336715       31.1667971638
  H        10.9567893804        4.4781404229       33.7318149018
  H        11.2477957422        6.0431996022       34.2509982566
  H         9.5857603844        5.6640242634       33.6494671851
  C        10.4087384595        4.9038242820       28.5979885582
  H        11.5560661234        6.3387605768       29.6184857809
  H         9.8684202671        6.7495413667       29.5941013567
  C        10.7008902508        5.3605041278       27.2289972799
  H        10.8089239773        3.9228402739       28.7936149184
  H         9.3499733816        4.6806974974       28.6413738592
  C         9.8039151910        4.7334654406       26.1548072140
  H        11.7766207450        5.1306437828       26.9480399402
  H        10.5989125775        6.4368333807       27.1744221984
  C         8.5339710317        5.5067575393       25.9682961552
  H        10.3417161465        4.7087188156       25.1868273790
  H         9.6427991756        3.6674776233       26.4322304280
  C         7.3802131304        4.7983776294       25.1932197561
  H         8.2358054872        5.6604710352       27.0103934611
  H         8.7547403827        6.5429012011       25.6387865148
  C         6.9843495938        3.3917663322       25.7941393606
  C         7.8932576730        4.1717145645       23.9523281380
  C         6.2448458540        5.7857599591       24.9557197315
  C         7.1889851950        2.3680199162       24.9295183972
  C         6.3100021300        3.0084352672       26.9836380833
  C         7.7346949149        2.8311021505       23.7842595329
  C         8.3848902346        4.9131096837       22.8931018001
  H         6.5812821863        6.5480274736       24.1946056412
  H         6.1001951943        6.2931573289       25.9150532266
  C         4.9673194405        5.0558437610       24.5169891437
  S         6.6733780772        0.8064972648       25.6468570827
  C         6.1828360379        1.6525766982       27.0895326620
  H         5.9641289221        3.7522793572       27.6641530891
  C         8.1618630940        2.2625770269       22.6166802923
  H         8.4971688855        6.0106241942       22.9141686012
  C         8.7508898145        4.3573937583       21.7202451385
  H         5.0997997323        4.8895010453       23.4496173548
  H         4.7455014517        4.1002266778       24.9869373648
  C         3.8006362660        6.0357674086       24.5274348793
  C         5.7686532379        1.0141037217       28.3712397039
  C         8.6701129375        2.9867934574       21.5282599468
  H         7.8922421247        1.1979972124       22.4950787054
  C         9.1466543706        4.7459781331       20.4867935871
  H         3.0521295158        5.6464999519       23.8680252049
  H         3.9799385726        6.9409461126       24.0739220569
  C         3.2154401792        6.2480219592       25.8853423791
  C         5.7732134458       -0.3436660450       28.6402201220
  C         5.3136828665        1.9355412451       29.4763190174
  C         9.1601057980        2.3205214482       20.2408232948
  C         9.3923866281        3.6665489301       19.6647115418
  S         9.4356340153        6.2300804257       19.8074433638
  H         2.5154543098        7.0374245637       25.8533774202
  H         4.0029544561        6.6207800889       26.5122772026
  C         2.4398980367        5.0454112367       26.4851831258
  N         6.0626146621       -1.3831692042       27.7204588915
  C         5.3907754415       -0.9066553642       29.8700424914
  C         5.1620455851        1.3779645060       30.7614960258
  H         5.1968686472        3.0150551930       29.4222550789
  C         8.0118626073        1.5173436912       19.4466691736
  C        10.5595067446        1.5967761580       20.2922283987
  C         9.7662402131        4.0781953159       18.4048737174
  C         9.9026014328        5.4740772438       18.2772245958
  H         1.6793210531        4.7285152775       25.7116482311
  H         2.9497723419        4.1960833026       26.7771134937
  C         1.6183854208        5.4003970337       27.7221518681
  S         5.8062336869       -2.8556981049       28.4615821356
  N         5.6266491001       -2.3110528801       29.9788691523
  C         5.0192099656       -0.0612997523       30.9689993014
  H         4.8710302908        2.0168684764       31.4976077138
  H         7.8632236708        0.6158705071       20.0810508102
  H         8.3922557458        1.1912280765       18.5227293761
  C         6.7891878645        2.3528110783       19.1691231416
  H        10.7687484804        1.3746510701       19.2390062665
  H        10.4121907322        0.6343428299       20.9672305902
  C        11.7555329415        2.4788754201       20.7941159930
  H         9.8147303270        3.3328153047       17.6566694161
  C        10.2562619662        6.2346429901       17.1204826113
  H         0.6830775493        4.8527020669       27.7065557615
  H         1.3140823044        6.4278226735       27.8268329230
  C         2.3365774536        5.1566891858       28.9391040805
  C         4.8843977717       -0.5867226301       32.2434428423
  H         7.0637500471        3.0036977121       18.3570694333
  H         6.3614682448        2.9838399266       19.9868143771
  C         5.6188785105        1.6555237793       18.4904741476
  H        11.5265722500        2.6860808691       21.8445970119
  H        11.8932978112        3.4484664610       20.3102761017
  C        13.0765375540        1.7460140398       20.7424421928
  C        10.2864981061        7.6507016600       16.9536004209
  C        10.4502674632        5.4969636574       15.8779770562
  H         2.7833481271        4.2425250786       28.9675880739
  H         3.2194621693        5.7385464456       29.1051342237
  C         1.4450091965        5.3925928271       30.1715960079
  H         4.7503195692       -1.6202995119       32.2274250632
  C         4.6234870905       -0.0667403216       33.4900454798
  H         5.0651340022        1.1443610163       19.2530811059
  H         5.9222499206        0.9651659581       17.7175963109
  C         4.6445907033        2.7056155664       17.8853027470
  H        12.9944172396        0.8815264378       21.4804202685
  H        13.1548286380        1.3065249027       19.7593550398
  C        14.2925664612        2.5813931751       20.8276275348
  N        10.1951829961        8.5754531882       18.0208530825
  C        10.4719378989        8.3045465928       15.7381666637
  C        10.7562571280        6.1722249584       14.6860205703
  H        10.3339548849        4.4423828141       15.8091516204
  H         2.0159366249        5.2889649745       31.1310621127
  H         1.0614516171        6.4081739005       30.2370057791
  H         0.5635728362        4.7827437787       30.0194181282
  S         4.4416200044        1.6050385294       33.9173909499
  C         4.3950327865       -1.0049688963       34.6072239566
  H         4.6617215149        3.6185843411       18.4792283128
  H         4.9764698654        2.9333335937       16.8508332702
  C         3.2086266573        2.1407659949       17.9432742377
  H        14.2602588943        3.5350239447       20.2663530332
  H        15.1652675722        2.0924382981       20.4374275372
  C        14.4470596145        3.1430067980       22.2571222784
  S        10.1109475744       10.0397804122       17.4289112655
  N        10.3719189999        9.7179545238       15.8624975736
  C        10.7165489220        7.6244805382       14.5400998360
  H        10.8940375041        5.5984665187       13.7950799319
  C         4.2005321431        1.0532808803       35.5831701660
  N         4.0929996303       -0.2741211898       35.7204018731
  O         4.4773429273       -2.2327188332       34.4772669765
  H         2.5301439058        2.9661486328       17.6764712872
  H         2.7799822921        1.7949487533       18.9326511156
  C         3.0499070793        0.9439448731       17.0006897227
  H        15.2176704451        3.9466467749       22.2789589015
  H        13.5346447925        3.6021859971       22.4956886807
  C        15.0245129530        2.0597392669       23.1401192121
  C        11.0455704854        8.4058704187       13.4160983723
  S         3.6996625353        2.1239630876       36.9126812123
  C         4.1144412398       -0.8655944436       37.0895442372
  H         2.1631177137        1.0830011083       16.4435471798
  H         3.7774746408        1.0410955656       16.1886143755
  C         2.7711733289       -0.3314036311       17.8052390649
  H        15.2399429510        1.1540380200       22.5561540559
  H        14.3120388989        1.8544019721       23.9724326927
  C        16.4238414291        2.3554645547       23.6367242060
  H        10.7184762570        9.4309898421       13.5394537463
  C        11.4524038672        8.1167763814       12.1292619702
  H         3.7725580244       -0.1476024936       37.9225934654
  H         3.4814825999       -1.7370829043       37.0290286754
  C         5.5685652114       -1.1588487726       37.4279056459
  H         1.9630681165       -0.1610502076       18.4749385767
  H         3.6731567752       -0.4699874138       18.4581276653
  C         2.5200871461       -1.6828474651       17.1543335701
  H        16.4915563446        3.3267305674       24.2354403065
  H        16.5936899679        1.4658794637       24.2392825226
  C        17.5711958742        2.3890631940       22.5522286351
  S        12.0078468697        6.5970554244       11.5169470577
  C        11.5022107575        9.1776252453       11.1519014496
  H         6.1784396874       -1.6240861901       36.5891413765
  H         6.1438485983       -0.2697374467       37.6587812780
  H         5.6072224618       -1.8700208879       38.2887954432
  H         3.4140560019       -2.2600612589       17.1292918793
  H         2.1910056582       -1.5597894603       16.1240032223
  H         1.8101501229       -2.3037294475       17.7074214652
  H        17.1264703014        2.7449694706       21.6392658413
  H        18.0567268628        1.4135614020       22.3756457157
  H        18.3330907511        3.0852043526       22.9282414808
  C        12.2579735096        7.4160908978        9.9867672460
  N        11.9922729327        8.7182019034       10.0236566897
  O        11.0533302512       10.3701793971       11.3700434483
  S        12.9461563442        6.6776605437        8.5099559285
  C        12.2704238961        9.6638408590        8.9630952435
  H        12.7255575019       10.5466882037        9.3889192759
  H        12.8705095093        9.3268664002        8.1144954815
  C        10.9902481527       10.1264134168        8.3128659524
  H        10.0983152609       10.1377970972        8.9100127531
  H        11.1685567526       11.0547688234        7.7341282695
  H        10.7630521008        9.4765395008        7.4727139006
  H        21.4385671801       11.8322334728        3.2295480309
  C        21.9084857022       10.8575412117        3.3559001640
  H        21.0805850312       10.1050084700        3.3744152153
  C        22.6452573834       10.8265817893        4.6436158726
  C        22.6936530811       10.6181615779        2.0588516702
  C        21.7913870274       11.1636366171        5.9043708151
  H        23.0911115544        9.8451462330        4.8093300268
  H        23.4364984519       11.4963555071        4.4709651425
  H        23.6013636597       11.1931461921        2.0510894435
  H        22.1839279903       10.9759642123        1.1244394287
  H        22.9345020420        9.5621683739        1.8427786469
  C        21.1934707083        9.8787464766        6.5013446868
  H        22.3735640628       11.7268958819        6.6158195037
  H        21.1742166422       11.8985482361        5.5579351910
  C        20.4471251321       10.2827120710        7.7738955502
  H        21.9528848801        9.1348273287        6.8080723270
  H        20.5330188634        9.4106392192        5.7384687990
  C        19.1705025766       11.1693363021        7.5613694108
  H        21.1998760007       10.7652129291        8.4530896731
  H        20.1565267503        9.2968469983        8.1859928924
  C        17.9969954509       10.3119752981        7.0584427575
  H        18.9083026789       11.6005017612        8.5106135470
  H        19.4066112365       12.0050871595        6.8559199777
  C        16.6678099103       11.1878434315        6.8429218307
  H        17.6351389474        9.5556690067        7.8338834453
  H        18.2403834585        9.7663488249        6.1740477499
  C        16.8861700537       12.5754151184        6.2684587157
  C        16.2488007963       11.8540104695        8.1517958150
  C        15.4921162860       10.4633266839        6.0548939964
  C        16.6242371968       13.6323493637        7.1048847180
  C        17.4768417108       13.0593468566        5.0880606130
  C        16.1341448731       13.1912709174        8.3333826673
  C        15.7757159042       11.1489131535        9.2736275741
  H        15.9097480569        9.9819655754        5.1210327995
  H        15.1367236751        9.6788804436        6.6971361396
  C        14.3411545186       11.3845966436        5.5991634205
  S        16.9406036484       15.1849138377        6.4081958996
  C        17.5486713103       14.4193588443        4.9622610338
  H        17.8739042992       12.3089457217        4.4762768747
  C        15.6073746663       13.6874802235        9.4733395644
  H        16.0784154736       10.1047743184        9.2794835211
  C        15.3159749392       11.6917390749       10.4609206583
  H        14.7042326096       12.1181336283        4.8717256398
  H        13.8333294164       12.0237180350        6.3400618928
  C        13.1700200033       10.6299824027        4.8337341521
  C        17.8965329849       15.0518129295        3.6425227854
  C        15.2204140664       12.9915561279       10.6463559543
  H        15.5438195329       14.7761400691        9.5329598415
  C        14.9468982748       11.2308546198       11.7471771233
  H        12.3214350267       11.2879343666        4.9193605507
  H        12.9954550940        9.7329827081        5.4760246769
  C        13.5625711890       10.2809267877        3.4190974614
  C        17.9342243236       16.4321966893        3.3864372020
  C        18.3269337575       14.1705008586        2.5476547510
  C        14.8074013959       13.6327651078       11.9342034009
  C        14.5890276134       12.2323106725       12.6191447594
  S        14.6419056179        9.7069626095       12.3847891427
  H        14.2773528674        9.4783781427        3.2507895378
  H        13.9102381694       11.2107682775        2.9188794227
  C        12.3213049879        9.9594395493        2.5714168019
  N        17.6159007154       17.3880965278        4.3168395627
  C        18.2485687369       16.9526829708        2.1099455029
  C        18.5531276451       14.6793523642        1.2768728622
  H        18.3417270567       13.1138750070        2.6789282757
  C        13.4999442095       14.4433082130       11.8359947303
  C        15.9687512875       14.4049144295       12.5841611109
  C        14.2103836668       11.7534435924       13.8696327434
  C        14.3023020829       10.4024437159       13.9493269599
  H        11.5609520161        9.3757232256        3.0603808467
  H        11.8255631635       10.8963827606        2.3697132820
  C        12.6548155437        9.2737117134        1.1633850447
  S        17.7895395611       18.8421000838        3.6601097255
  N        18.2891894889       18.3605100314        2.1431655139
  C        18.5173798635       16.1465902199        0.9852999174
  H        18.6629536665       13.9328334511        0.4865731219
  H        13.6838489177       15.2056380726       11.0120955233
  H        13.3432750286       14.8930072374       12.7982547754
  C        12.3903482742       13.5526909370       11.4118434124
  H        16.2156319859       15.1278113221       11.8381497050
  H        15.4368280324       14.9530097997       13.3822690155
  C        17.2372999179       13.7066680579       13.1073938333
  H        13.9783438734       12.4358329199       14.6774002781
  C        14.0004124328        9.6575174938       15.1910746509
  H        12.5864579351        8.2129360553        1.3900188475
  H        13.6786157178        9.4225868600        0.9393850478
  C        11.7673768706        9.6251805088       -0.0400060922
  C        18.7008623246       16.8251777894       -0.2547762535
  H        12.6166187373       12.9247191114       10.5403836114
  H        12.1709597866       12.8253482965       12.1990458322
  C        11.1309721283       14.4723444183       11.2273437089
  H        17.7127083568       12.9835090845       12.4542875645
  H        16.9926096983       13.1902429338       13.9773143499
  C        18.3366392015       14.8150692718       13.3646115900
  C        13.9825924633        8.2435315200       15.3816280597
  C        13.7195454050       10.4507811940       16.4790970938
  H        11.4907582870        8.6646529181       -0.4705777536
  H        10.7573705501        9.9230251761        0.2454785125
  C        12.3270355237       10.3648068043       -1.2299391914
  H        18.4627556415       17.8954769401       -0.2242098427
  C        19.0330742640       16.3088997791       -1.4770432564
  H        11.3257297047       15.3354130271       10.6025906457
  H        10.9075999288       14.7739117194       12.2578750555
  C        10.0431959406       13.6542372274       10.5587665707
  H        18.6089286926       15.1667148032       12.3613846852
  H        17.8249332986       15.5891741503       13.9238237820
  C        19.5555995838       14.4435378430       14.1600704772
  N        14.2095467469        7.2950212092       14.3481870702
  C        13.7597819519        7.6157197961       16.6177383734
  C        13.4450281019        9.8001743893       17.6796181527
  H        13.7335928212       11.5622945168       16.4896706050
  H        12.1722529728       11.4557309109       -1.1019391628
  H        11.7282242369       10.1924837478       -2.1073379242
  H        13.3080207389       10.0661986005       -1.3874221421
  S        19.4148312606       14.7161104531       -1.9289286004
  C        19.1427147524       17.3152367359       -2.5115989956
  H        10.6741337165       13.0527598650        9.8187383911
  H         9.6545751261       12.8567702254       11.3058520877
  C         9.0015426528       14.4798747220        9.8485638352
  H        19.8350599487       13.4550988231       13.8787744443
  H        19.2491519504       14.4033347283       15.2332622775
  C        20.6939507933       15.4365329126       13.9754076655
  S        14.2551505814        5.8021877423       14.9907732229
  N        13.9302223515        6.1975709631       16.4794045947
  C        13.4753034261        8.2856990645       17.8038940620
  H        13.2940858730       10.4023202926       18.5510157278
  C        19.6107684862       15.3968804981       -3.5419868129
  N        19.4442914139       16.7259403806       -3.6636740952
  O        18.8244707485       18.4910926373       -2.4258959459
  H         8.5601888442       15.2415713544       10.4731231629
  H         9.4538431274       15.0970676323        9.0610081540
  C         7.9075041628       13.5132447663        9.2827917760
  H        21.5659784246       14.8634004464       14.3077759288
  H        20.8939922470       15.7607749464       12.9489731901
  C        20.5869784857       16.6471749154       14.8757980755
  C        13.2355073744        7.5382757418       18.9966552218
  S        20.1066095023       14.4959709463       -4.9894300120
  C        19.5353004329       17.4010258526       -5.0128368069
  H         8.3663662759       12.9277771365        8.4584995252
  H         7.6217954060       12.7488869885        9.9938634299
  C         6.6725464413       14.2923075852        8.7803325615
  H        20.9828875243       16.3553388733       15.8220718333
  H        19.5987627586       16.7849776636       15.1640315195
  C        21.2440073848       17.8910004308       14.2519920162
  H        13.6864102128        6.4956867389       19.0163423198
  C        12.6907122980        7.9136693273       20.1858925119
  H        20.5194415154       17.2970383747       -5.4386737724
  H        19.5480301856       18.5101291562       -4.7945106851
  C        18.1970923116       17.0969408076       -5.8032480780
  H         6.2826163685       13.7451424729        7.9810820937
  H         6.9719331813       15.2642976816        8.4353763969
  C         5.5652618306       14.2973991937        9.7964110530
  H        21.0982795791       17.8477415504       13.1882186634
  H        20.7360250009       18.7664344132       14.6042678602
  C        22.6953883596       18.0413673918       14.5868881710
  S        11.9211076438        9.3914018066       20.5421139508
  C        12.3757844819        6.8956126847       21.2025425062
  H        18.1175840285       16.2011423873       -6.3575051525
  H        18.0360888491       17.9800001089       -6.4357624655
  H        17.3278855544       16.9561687562       -5.1421478743
  H         5.8830193746       14.9763263383       10.5620956569
  H         4.6599835907       14.6677671787        9.3602882928
  H         5.3575322662       13.3044613801       10.2546872154
  H        23.1266351735       16.9592362786       14.4443219222
  H        23.2891773385       18.5961240285       13.8734371903
  H        22.9840052126       18.4750977172       15.5412201646
  C        11.4576520687        8.6867949831       22.1615532455
  N        11.8082136917        7.3965552346       22.3093288687
  O        12.6113463278        5.6714149089       21.0074429551
  S        10.7288375644        9.4899045696       23.5451371672
  C        11.5587488379        6.5406421488       23.4584945473
  H        11.1103190384        5.6419015562       23.1239529968
  H        10.8170628549        6.9819507534       24.1821547835
  C        12.8749458356        6.4078150656       24.2009942156
  H        13.5106781695        7.2178323507       23.9267147090
  H        13.3543803736        5.4963377388       23.7995429834
  H        12.8460711079        6.3046398605       25.2607637503
