352
 i =    77000, time =    77000.000, E =        24.9052524980
  H         9.6661549799        6.5975275609       32.1380453820
  C        10.6819594402        6.3111369758       32.0768730220
  H        11.1518500230        7.2492477493       32.4129290865
  C        10.8095964182        6.0689925232       30.5849505472
  C        11.2713344513        5.1650637190       32.8661881506
  C        10.0359480769        4.8858810639       30.0674935115
  H        10.6864104208        6.9901477610       30.0439184889
  H        11.8390202555        5.8718310267       30.3863360204
  H        10.8561454225        4.2118687201       32.6394727571
  H        12.3517937864        5.0725571610       32.6921825633
  H        11.2085651460        5.3911733862       33.9495532667
  C         9.3134347912        5.2449075360       28.7818152277
  H         9.3916788473        4.7251644270       30.9651251952
  H        10.6774448588        4.0084283032       29.8889384576
  C        10.1799287729        5.2611815939       27.5285625254
  H         8.3430891305        4.7501183171       28.6820221325
  H         9.0510795708        6.3196053705       29.0531880117
  C         9.3030618484        4.7344758969       26.4144615668
  H        11.0414051215        4.5930866634       27.6441686453
  H        10.5611600640        6.2316457896       27.2107325783
  C         8.0416719596        5.6148029615       26.0285477856
  H         9.8636668918        4.5624475004       25.4489209520
  H         8.9751559930        3.7363225833       26.5936752596
  C         6.8995963714        4.7429314598       25.4377784649
  H         7.7606852605        6.0562986732       26.9653722765
  H         8.3167418094        6.4131134106       25.3635923770
  C         6.5605997497        3.4772522341       26.2664350485
  C         7.3100941747        3.9385304433       24.3073836816
  C         5.5023040902        5.4703346642       25.1521804403
  C         6.8033092377        2.3550383411       25.5271063144
  C         6.1067397010        3.1297242331       27.5233737899
  C         7.3041943832        2.6324532310       24.2981002927
  C         7.6880461990        4.5301677541       23.1042521836
  H         4.7672513784        4.7592697302       24.6875655051
  H         5.7112796775        6.2461825998       24.3459296272
  C         4.7719934196        6.0368410349       26.3626593478
  S         6.3705374788        0.9087964574       26.2943652787
  C         5.9948760730        1.8009867446       27.7099714783
  H         5.9027255994        3.9271088754       28.2035020486
  C         7.7093170568        1.9596826254       23.1246340377
  H         7.7537502833        5.6358247235       23.0172704499
  C         8.1459031250        3.9496228080       21.9915474429
  H         5.1452304271        5.6508553211       27.2150436367
  H         5.0094824153        7.1174600003       26.3581602067
  C         3.2646086542        5.7890956645       26.1778903502
  C         5.7530189924        1.0975114916       29.0290550946
  C         8.1922398160        2.5913558005       21.9579846848
  H         7.6828571590        0.8894182715       23.1567600974
  C         8.5840175685        4.2958253600       20.7553065776
  H         3.0364713360        4.7241952667       25.9810854255
  H         2.9249218923        6.3135096062       25.2938376867
  C         2.5100000268        6.2177513428       27.3491835464
  C         5.8303347815       -0.3277345372       29.2540393669
  C         5.4762654301        1.9467115380       30.1975237170
  C         8.7101391742        1.8351991636       20.7816787898
  C         8.8896648614        3.1997383522       20.0388656629
  S         8.8559234653        5.7265747873       19.9831252783
  H         1.5232108700        6.5635375793       27.0258600587
  H         3.0979105167        7.0951350111       27.6692403614
  C         2.2822673968        5.1549516925       28.3890354353
  N         6.1345790286       -1.3342678562       28.3007331178
  C         5.6506323986       -0.8612117283       30.5282658475
  C         5.2966949021        1.3694315018       31.4910889662
  H         5.4724285889        2.9777383425       30.1113555215
  C         7.5815023226        1.1383502264       19.8410329377
  C        10.0572895732        1.1372393545       21.0754442767
  C         9.2149053385        3.5809510467       18.7720333312
  C         9.3072870686        4.9078803632       18.6330025953
  H         2.0389649517        4.1824955106       27.9057706078
  H         3.2606338988        4.9031978656       28.8652990114
  C         1.2090307072        5.6368893062       29.3731910830
  S         6.2454066558       -2.7940748723       28.9674554989
  N         5.7729707204       -2.2678077661       30.4717458946
  C         5.1696407231       -0.0867653529       31.6194642502
  H         4.9878641314        1.9644672346       32.3119768966
  H         7.1993072103        0.3674413857       20.5533557607
  H         7.9896829658        0.7298576782       18.9549862367
  C         6.2866375965        1.9397579031       19.5739821969
  H        10.3542095832        0.5898360463       20.1646701610
  H         9.7525428075        0.4062474261       21.8268133335
  C        11.2656658137        1.9929573244       21.5844701417
  H         9.2846241285        2.8329037935       18.0236038018
  C         9.6551330936        5.7707112166       17.4280506333
  H         0.2103518857        5.4277841109       28.9551836156
  H         1.2727969512        6.7007257405       29.5803597927
  C         1.0533668765        4.8701611845       30.6632970378
  C         5.0067811013       -0.7051405261       32.8821189227
  H         6.5060992476        2.6147682512       18.7458607042
  H         6.0156093076        2.5389798419       20.4068197345
  C         4.9524625717        1.1812384352       19.2594343237
  H        11.0940703479        2.3697159328       22.6028236803
  H        11.4962139184        2.8894361578       21.0560619233
  C        12.5746573598        1.1964765614       21.6617393329
  C         9.7249013209        7.2144904812       17.3510740044
  C         9.9705475698        5.0828016235       16.1216578264
  H         0.5832753309        5.5258579512       31.4832756207
  H         0.4983305774        3.9911048923       30.5009030620
  C         2.4112069024        4.5119707556       31.3150405205
  H         5.0223497650       -1.7350494072       32.8278715188
  C         4.7164140115       -0.2657689901       34.1456296806
  H         4.1112692212        1.8312345874       19.2759776478
  H         4.8631205700        0.4593124788       20.0626295414
  C         4.9487417945        0.4178732734       17.9548320345
  H        12.2876613436        0.3509995781       22.2630220136
  H        12.8540181824        0.8470517394       20.6554979147
  C        13.6525162488        2.0022584976       22.3348548292
  N         9.5425044161        8.1312047825       18.4194381264
  C        10.1149514259        7.8803437055       16.1969533021
  C        10.3134476829        5.7973116033       14.9817002600
  H         9.9391595825        4.0100745911       16.0779101538
  H         3.2146937055        5.1916034938       31.0404381405
  H         2.3605296053        4.2999479248       32.3661196526
  H         2.7816813966        3.6551362328       30.8388608070
  S         4.4547160677        1.2922945952       34.7752366775
  C         4.6052326411       -1.3395470027       35.1757981548
  H         5.3041081958        1.0975460346       17.1404182412
  H         5.7715061075       -0.3028245179       17.9730664867
  C         3.5919778602       -0.1093465373       17.4432874039
  H        13.2073211776        2.5333275303       23.1496820188
  H        14.0247883529        2.7637708077       21.6959097367
  C        14.8893309614        1.2885191095       22.9396688214
  S         9.5350983930        9.6183632815       17.7792362890
  N        10.0564906681        9.2914637364       16.3168667519
  C        10.3449654875        7.3172560465       14.9751230458
  H        10.4263078952        5.2174581370       14.0454867526
  C         4.3065543752        0.6021803994       36.3317422570
  N         4.3372179737       -0.7470376893       36.3474118547
  O         4.7901005328       -2.5140301742       34.9621817882
  H         3.7290189123       -0.5448201447       16.4677039645
  H         2.9632317829        0.7707620093       17.3486767825
  C         3.1021451947       -1.2314268675       18.4044139501
  H        14.5742043900        0.4551758741       23.5314595683
  H        15.6385669122        1.0030295753       22.1626770494
  C        15.6768023352        2.2576858584       23.8181994613
  C        10.6677015563        8.1926798435       13.8555698739
  S         4.0822285514        1.3983478252       37.8722731448
  C         4.5255066300       -1.5398875627       37.5016993984
  H         3.6960631127       -2.1508634257       18.2543740980
  H         3.1851752880       -0.8527070506       19.4015707166
  C         1.7249489190       -1.6108952987       18.0196007813
  H        15.0980258695        2.3012872332       24.7296680520
  H        15.7551505512        3.1412831854       23.3491231687
  C        17.1125096931        1.7962517573       24.0167701444
  H        10.3083627362        9.1913640843       14.0677024219
  C        11.2651485496        7.8849952940       12.6397723822
  H         3.9079612223       -1.1083209936       38.2648173934
  H         4.1190757675       -2.5656250688       37.3929245444
  C         6.0078080832       -1.5453125496       37.9097889927
  H         1.1917729589       -0.8039751958       18.4447322776
  H         1.4875680064       -2.5925305704       18.4251937567
  C         1.4405387878       -1.7421021040       16.5310756029
  H        17.4383833005        2.1124201727       24.9644751463
  H        17.1378968265        0.6502615671       24.1718083703
  C        18.0278616174        2.2620113856       22.8404895242
  S        11.7925702009        6.3640776972       11.9790271107
  C        11.2393418749        9.0200978103       11.6558652763
  H         6.5522455018       -0.9551854670       37.2149004629
  H         6.0863280598       -1.1340325194       38.9051003200
  H         6.2774960576       -2.5992949191       37.9022486689
  H         1.7351607867       -0.9008491614       15.9010844183
  H         0.3855065948       -2.0032290428       16.3276293728
  H         2.0317610184       -2.5669201774       16.1434875032
  H        17.7557723542        3.2772493604       22.4675060364
  H        18.0133013492        1.5582827062       22.0435316792
  H        19.0605294456        2.4006008738       23.0792005855
  C        11.9271742208        7.2531283316       10.4067396767
  N        11.7282557894        8.5794221715       10.5272457199
  O        10.9329715012       10.1824994790       11.9027864853
  S        12.4246526378        6.4431030701        8.9105470809
  C        11.9699699556        9.4843269238        9.4836632105
  H        12.2305275472       10.4441572212        9.7786059688
  H        12.8999972457        9.0209388809        9.0476392543
  C        10.7985756900        9.5749576866        8.4409268148
  H         9.8836921220        9.8223323270        8.8888578658
  H        10.9536504990       10.5521569965        7.9595678882
  H        10.7952081092        8.9728185051        7.5226282316
  H        21.1433410536       11.1531769015        2.7003827166
  C        21.7140406643       10.2131502748        2.8394484520
  H        21.0421371048        9.4025520700        2.8256073688
  C        22.5389258860       10.3870599330        4.1572324948
  C        22.5797386596       10.0093858759        1.6645098835
  C        21.7182903301       10.6316351625        5.4638803968
  H        23.1716984364        9.5331115385        4.3089655722
  H        23.1856295425       11.2359855010        3.8831766275
  H        22.8581806646       10.9936899155        1.3811244002
  H        21.8954474773        9.5925518976        0.8340835774
  H        23.4094274384        9.2951469185        1.9198192967
  C        21.3964838845        9.2609224210        6.1118723097
  H        22.2070289221       11.3326895277        6.1251027579
  H        20.7851379789       11.1194475047        5.2392233610
  C        20.2705555293        9.3618077404        7.1326716921
  H        22.2389783182        8.8019498731        6.5789770099
  H        21.2053181889        8.5499610935        5.3275436235
  C        18.8497926310        9.2537881119        6.6135078291
  H        20.4568562960       10.1824383899        7.8420978194
  H        20.4613245181        8.5875886516        7.8753754484
  C        17.7738287073        9.7932032456        7.6170983291
  H        18.7036991473        9.7258156131        5.6001190934
  H        18.6196241260        8.2211214084        6.2988902549
  C        16.6455310324       10.6711577914        7.1308639060
  H        18.1734996683       10.2359841088        8.4847766372
  H        17.2990740344        8.8860058989        8.0793078604
  C        16.9600580703       11.9754373428        6.4256839750
  C        16.1165351660       11.3604054795        8.3355976761
  C        15.5730306445        9.8918969675        6.3874203516
  C        16.5775382903       13.0816671405        7.1582906058
  C        17.5176251962       12.3595766900        5.2134881184
  C        16.1627291413       12.6600334081        8.4452403879
  C        15.6349912982       10.6280412178        9.4412740153
  H        16.1927844728        9.3517613466        5.6232579159
  H        15.2568117041        9.0581492449        7.0423785862
  C        14.4085857502       10.6064351565        5.7495457765
  S        16.9961435514       14.5729745246        6.4370425933
  C        17.5569281977       13.7012699017        5.0705908020
  H        17.5630989924       11.6276572035        4.4687708246
  C        15.8797617380       13.2193431485        9.6283020972
  H        15.5959184230        9.6415319194        9.3445493650
  C        15.3662075391       11.2313967043       10.6255040230
  H        14.7027353312       11.2707822276        4.9453020420
  H        14.0076193994       11.2798203786        6.4229291178
  C        13.3262129276        9.7419502804        5.1577969406
  C        18.0808348858       14.3824154111        3.8112846216
  C        15.3460918523       12.5679129128       10.7183842509
  H        16.0356792952       14.2896250368        9.6936598888
  C        14.9275727773       10.8225034856       11.8699930823
  H        12.4754922326       10.4687326159        5.1628336039
  H        13.0046100995        8.8794469361        5.7215269994
  C        13.7280570842        9.2284175842        3.7513764980
  C        18.0390175223       15.7724167801        3.4622825058
  C        18.7419290275       13.5490508627        2.7643529430
  C        14.9029665291       13.2822933263       12.0273536184
  C        14.6871095523       11.9707995956       12.7187814812
  S        14.5881587304        9.3424771759       12.6157612516
  H        13.5494771636        8.1435491500        3.6654633905
  H        14.8255514383        9.3717007208        3.7033055941
  C        13.0557213843        9.9233045902        2.5780524578
  N        17.5692005860       16.7580350154        4.3753001576
  C        18.2871045648       16.2588102537        2.2535023342
  C        19.0675832452       14.1019413420        1.5129493525
  H        18.8976127944       12.4574406239        2.9589069048
  C        13.5641012727       14.1107371711       11.8578186914
  C        16.0622262832       14.0498643749       12.6892768327
  C        14.2182556546       11.5906903817       13.9983181760
  C        14.1649691618       10.1852086329       14.1398366913
  H        11.9626683819       10.0529390808        2.8033378676
  H        13.3978437282       10.9519879689        2.5422118722
  C        13.3007388475        9.2205543337        1.2492331061
  S        17.5286764376       18.1340381107        3.6482318329
  N        17.9110457018       17.6174184764        2.1931471166
  C        18.7666062032       15.4901211934        1.1862179845
  H        19.5086018545       13.5348016118        0.7179421574
  H        13.6609136500       14.8466848108       11.0900699098
  H        13.3882375220       14.6175463430       12.7702627288
  C        12.4021344242       13.1862275609       11.7333584115
  H        16.3706797048       14.8888837944       12.0783846319
  H        15.6815346671       14.5080980531       13.5961040987
  C        17.3212646570       13.1866850342       12.9907926850
  H        13.8672595398       12.2817030811       14.7260189321
  C        13.7109141538        9.3890278481       15.3805973492
  H        12.5636262166        8.4536839588        1.2197263107
  H        14.3035171830        8.8345116929        1.3607488328
  C        13.1388924010       10.2028935189        0.0382293866
  C        18.8906863930       16.0340983757       -0.1692833591
  H        12.5543072590       12.4795064256       10.9044196777
  H        12.1328659167       12.7863814328       12.6974355136
  C        11.1203356015       13.9480371555       11.2953437975
  H        17.5502449291       12.7664106078       12.0087680397
  H        17.0771431187       12.4036318656       13.7166458073
  C        18.4759882314       14.1014698326       13.4765790629
  C        13.7665739604        8.0076824001       15.5448395883
  C        13.3869866614       10.1148679393       16.5881921719
  H        12.9927916079       11.2555615489        0.3841231145
  H        14.0475894283       10.1630766611       -0.5797246111
  C        11.8644517960        9.9767349218       -0.7633899630
  H        18.6069386086       17.0233373010       -0.2312967904
  C        19.2457335437       15.5177249731       -1.4093464584
  H        11.2727915497       14.5256222088       10.3955651507
  H        10.8528285029       14.5487238495       12.0921851390
  C         9.9474686197       12.9727711583       11.1265274054
  H        18.7591246067       14.6694352897       12.6075750330
  H        18.0768559412       14.8313775010       14.2102126776
  C        19.8575494803       13.4356739941       13.8782749590
  N        14.1533108828        7.0509602589       14.5648955452
  C        13.3477983185        7.3357138598       16.7016718747
  C        13.0773900735        9.4772116326       17.8107458305
  H        13.5314829357       11.1486166431       16.5743076738
  H        11.9611450837        9.3053437306       -1.6269259590
  H        11.4263640333       10.8442149051       -1.2500297578
  H        11.1095422282        9.4896988800       -0.1585326024
  S        19.4721439695       13.9336680037       -1.8347903129
  C        19.3546419785       16.4887249157       -2.5588376437
  H        10.2594694310       12.1130408304       10.4745976245
  H         9.5427567858       12.5592821621       12.0274269245
  C         8.9692698232       13.6028336202       10.1945439673
  H        20.4896971567       13.1106211172       13.0277348718
  H        19.6704005935       12.4477890714       14.3123605077
  C        20.6255082884       14.3284905829       14.8874846927
  S        13.9409981269        5.5090961812       15.1668757658
  N        13.4754134378        5.9389777682       16.6663343783
  C        13.0198715795        8.0027784140       17.8826608559
  H        12.8352095576        9.9994534692       18.6632098930
  C        19.6352552921       14.4523109516       -3.5824433852
  N        19.6292926679       15.8463945642       -3.7317803861
  O        19.1475132651       17.7141801593       -2.4526598141
  H         8.3077724800       14.2448717261       10.7787086302
  H         9.4190334002       14.3490680552        9.5505744112
  C         8.1985090106       12.7510545866        9.2953512760
  H        19.9713825920       14.6471856850       15.7479472790
  H        21.2449272645       13.5995925212       15.4629931320
  C        21.4967958452       15.4816479252       14.1833706475
  C        12.6919229759        7.1979805102       19.0391191357
  S        20.0750808640       13.3544629287       -4.8920136161
  C        19.4449483372       16.5524271466       -5.0692187726
  H         8.9407619453       12.4720496862        8.4934894770
  H         7.9050218747       11.8472667893        9.7703017550
  C         6.9687576538       13.4673869241        8.6792365646
  H        21.2053225559       15.6252934631       13.1418842725
  H        22.5829143986       15.2404859819       14.1963650347
  C        21.5196701333       16.7709449658       14.9313571090
  H        12.9116016881        6.1989057382       18.9161304222
  C        12.2034872962        7.4862996269       20.2773048962
  H        19.8346034940       16.1003608421       -6.0007452539
  H        19.9557600642       17.4688891565       -5.0968019925
  C        17.9575911737       16.9099448281       -5.2780655328
  H         6.7112502020       13.0005211512        7.8185547693
  H         7.3228389455       14.4604992867        8.3607816801
  C         5.7594348661       13.4294931213        9.6405936853
  H        21.9383163955       16.7428585591       15.9859905426
  H        22.1778971662       17.5562287920       14.3888543252
  C        20.1622191795       17.4947037590       15.0327162313
  S        11.5600970621        8.9249569123       20.8064414890
  C        12.0710487530        6.3802060903       21.2537627779
  H        17.4665414678       16.2067634034       -4.6514791150
  H        17.5521926404       16.9214139661       -6.3220166213
  H        17.7733747430       17.9324770351       -4.9044783166
  H         5.8726766726       13.8721494316       10.6495900965
  H         4.8881673187       13.8351040715        9.1671110463
  H         5.5698995368       12.3798733823        9.8628936234
  H        20.2276425197       18.3058544430       15.6934807737
  H        19.7824704372       17.9692021002       14.0999700562
  H        19.3677061715       16.8065186192       15.2087142121
  C        11.1842527773        8.1183343021       22.3563085106
  N        11.4005881620        6.7787228549       22.3374775653
  O        12.4623586954        5.2648700880       21.0426281474
  S        10.3368513124        8.6815567767       23.8262304068
  C        11.3978344117        5.8787139335       23.5084945130
  H        11.2573141048        4.8265774179       23.1761238175
  H        10.4296638409        6.0840811213       24.0668806654
  C        12.5939222553        6.0111844123       24.4803957057
  H        13.5094588447        6.2528385307       23.9258523377
  H        12.7444100830        5.0766771145       25.0306785333
  H        12.5346531346        6.8370327758       25.2169431723
