352
 i =    51000, time =    51000.000, E =        25.0394486532
  H         9.9117061675        7.2921696900       30.8895064239
  C        10.7304503332        6.9664328246       31.5854270281
  H        11.3453396114        7.8673829508       31.6631591841
  C        11.4685004017        5.7967728908       30.9907916169
  C        10.2871645252        6.5452930072       32.9492613138
  C        11.8024122839        5.8611849530       29.5216999912
  H        12.3607988878        5.7386008012       31.6210111222
  H        10.8812494505        4.8973713892       31.2090938567
  H         9.6621584230        7.3052217131       33.3476619806
  H         9.7209281554        5.6408112934       33.0285285438
  H        11.1633398103        6.3521914732       33.5627486134
  C        10.5026108799        5.7159455948       28.6870787188
  H        12.3895120131        4.9822567834       29.2887893789
  H        12.3478393977        6.7376777767       29.3499315283
  C        10.7720468859        5.7533990459       27.2102153785
  H        10.1227188860        4.7332904358       29.1034719879
  H         9.7781827816        6.5452187312       28.9462079116
  C         9.7419306433        5.0788182944       26.2488764224
  H        11.7553584152        5.2499684635       26.9771599152
  H        10.8595327588        6.7731072969       26.9336625102
  C         8.5407520414        6.0005060840       25.9361987877
  H        10.1489773001        4.7301621465       25.3179439828
  H         9.3803397343        4.1630946365       26.6310685018
  C         7.3527259801        5.2728944734       25.2731954164
  H         8.2013034132        6.6280902155       26.7351711564
  H         8.8953847733        6.7785187749       25.2274086949
  C         7.0448762908        3.8828098242       26.0282659657
  C         7.7789497332        4.4705314423       24.0477043110
  C         6.0142613916        6.0720021723       25.0722131059
  C         7.1579358720        2.8014186763       25.1652680499
  C         6.5455177646        3.4163977434       27.2733495013
  C         7.7025953347        3.1412768560       23.9126818952
  C         8.2404235298        5.1562476483       22.9533951824
  H         6.1259865306        6.6588555099       24.1794944287
  H         5.9378991757        6.6888035388       25.9935961703
  C         4.7268670121        5.3070400869       24.8293285411
  S         6.9590740237        1.2812742270       25.9666001146
  C         6.4951828676        2.0702886333       27.4365228438
  H         6.3784788382        4.0989924409       28.1264015552
  C         8.1202565423        2.5588360309       22.8242179420
  H         8.2291054250        6.2107546474       23.0027796860
  C         8.5516320486        4.5426059550       21.7430768637
  H         4.9449156627        4.5812787835       24.0831853147
  H         4.5552987336        4.6429725348       25.6745856958
  C         3.4573292267        6.0504365106       24.5826662589
  C         5.8957116862        1.4672817955       28.7373000778
  C         8.5692504647        3.1934802735       21.6769268795
  H         8.0461269119        1.4338343528       22.7670791795
  C         9.0550839024        4.8710924278       20.4909721727
  H         2.8674989087        5.2302816332       24.2185960612
  H         3.6466174847        6.7818633060       23.8368749576
  C         2.6633484778        6.4542009929       25.8260611546
  C         5.8488997722        0.1194446364       29.0390178966
  C         5.5131658837        2.3651841165       29.8579978682
  C         8.9463408339        2.4090291096       20.4974273440
  C         9.2686235025        3.7485283140       19.7440319417
  S         9.3387921759        6.4343963199       19.8071444427
  H         2.0416120356        7.3406013170       25.6349778351
  H         3.4779729758        6.9041530063       26.4935335648
  C         1.9064829008        5.3526497822       26.6498681588
  N         6.1706161116       -0.8824014087       28.1439643358
  C         5.4240630143       -0.3786889999       30.2447693328
  C         5.1260684695        1.8404250539       31.1044237533
  H         5.6071501414        3.4524124488       29.7829916973
  C         7.7721907319        1.5720568652       19.9384282630
  C        10.2521384895        1.6219836284       20.7839522225
  C         9.5771219642        4.1591263857       18.4276709169
  C         9.6307021108        5.5437366146       18.3245809279
  H         0.8641545224        5.2770190070       26.2712656677
  H         2.2592433457        4.3203905618       26.5121034332
  C         1.9865454669        5.6990011014       28.0948902699
  S         6.2467740413       -2.3085220093       28.9511945726
  N         5.6472713330       -1.7879692136       30.3668496823
  C         5.1013261415        0.3778721201       31.3949294605
  H         4.8616401811        2.5397289899       31.8742342772
  H         7.4479389438        0.8755156626       20.7109914255
  H         8.1839161180        1.0279640721       19.1031517738
  C         6.5651561859        2.4532216206       19.4302098110
  H        10.5600700072        0.9779396955       19.9123613365
  H        10.1504057678        0.8724105930       21.5952337126
  C        11.5315259957        2.4377171721       20.8798270878
  H         9.6846023236        3.3043266192       17.7400444123
  C        10.0163221081        6.2020461955       17.0280117655
  H         1.0489523544        5.5236770805       28.5325971018
  H         2.3027376878        6.6897847596       28.4249436941
  C         3.0304718760        4.8197195412       28.8116348066
  C         4.9111956438       -0.2888170133       32.5975157758
  H         6.9224772795        2.9876072303       18.5633324025
  H         6.4527690420        3.2354534462       20.1715523042
  C         5.2547195678        1.7067823830       19.2782868170
  H        11.3352185739        3.3025698955       21.5223387338
  H        11.8197543097        2.7078034237       19.8423731120
  C        12.7156842950        1.6011809292       21.2047370514
  C        10.0186473234        7.6460255194       16.9018025586
  C        10.2668336339        5.3951585941       15.8581349841
  H         2.9762415991        3.7052822595       28.7277858758
  H         3.9577670249        5.1120802376       28.3990923093
  C         2.9499907129        5.0977310522       30.3311853850
  H         4.9748583118       -1.3329952611       32.5664154581
  C         4.5925679966        0.0776371173       33.8216024795
  H         4.5576245027        2.0234331203       20.1271617321
  H         5.2535590714        0.5978099782       19.3654367550
  C         4.6410577283        1.9647576897       17.8957159299
  H        12.6984245942        1.2191620850       22.2090669446
  H        12.7037686059        0.7161355969       20.6320201998
  C        14.0549856055        2.3063931432       20.9586066252
  N         9.7022803892        8.5465536525       17.8566017725
  C        10.3759943566        8.2808168792       15.7333560222
  C        10.6272306090        6.0724865480       14.6587666639
  H        10.2423415581        4.2897876695       15.9628934883
  H         3.4942253586        4.4489954154       31.0403777025
  H         3.3534821388        6.0705966663       30.7088028099
  H         1.9171055096        5.1276440587       30.6085971594
  S         4.2947862055        1.6627175151       34.2001361221
  C         4.5614219290       -0.8760026224       34.9970318687
  H         4.3007364144        3.0096485351       17.8292040798
  H         5.3656492441        1.7260846787       17.1774803723
  C         3.4525103164        1.0468471887       17.7160218832
  H        14.1140040079        2.7256744128       19.9497253858
  H        14.8398690198        1.5509359470       20.9654448956
  C        14.3893044589        3.3738781345       21.9408734926
  S        10.0897131866       10.0674232820       17.4212925527
  N        10.4830915923        9.7152045200       15.9029344795
  C        10.7194358920        7.5642388896       14.5505251517
  H        10.7647781205        5.4326182033       13.7763422824
  C         3.9761010650        1.0968100446       35.8839356848
  N         4.1027991503       -0.2248944147       36.0925608574
  O         4.9026350650       -2.0390952565       34.8675528330
  H         2.7291457864        1.5282751359       17.0404234991
  H         2.9530731771        1.1469298314       18.6541429243
  C         3.8979810041       -0.3935668830       17.3741305555
  H        15.0786023235        4.0975043885       21.5031979347
  H        13.5320657418        3.9263434480       22.1049594522
  C        14.9351912014        2.8218924703       23.2424892764
  C        10.9817801194        8.2154296321       13.3823512064
  S         3.4119244947        2.2037696222       37.2622173766
  C         4.0219171395       -0.8224105138       37.3701576836
  H         4.7201601835       -0.3636897170       16.6966269998
  H         4.3197474301       -0.8929338617       18.2665955797
  C         2.7050849774       -1.2635086959       16.9310617357
  H        14.5426887067        1.7968353147       23.3611423634
  H        14.5536290576        3.3785089876       24.0462879470
  C        16.4337866233        2.7695233784       23.3519633446
  H        10.5627436714        9.2143172049       13.3628182016
  C        11.5784221306        7.9636680322       12.2001948486
  H         3.1438162115       -0.5667192836       37.9475615228
  H         3.8230657652       -1.8294391074       37.1720874673
  C         5.3354437089       -0.7078517838       38.0466493454
  H         3.0871275972       -2.1627057246       16.4972774041
  H         2.0130513255       -0.8253686776       16.1954524951
  C         1.9127795111       -1.5070033887       18.2820467700
  H        16.7822538587        3.8299229819       23.2888343108
  H        16.7897318847        2.5351548511       24.4333141511
  C        17.3004064198        1.9985528546       22.2888847189
  S        12.1530198641        6.4657063054       11.6425482798
  C        11.7712748014        9.0640667986       11.2086676556
  H         5.2527262426       -0.8669273987       39.1276937528
  H         6.1156352577       -1.3521350198       37.6870561652
  H         5.7428592470        0.3473289311       37.9453310350
  H         1.3513070574       -2.3845800802       18.0823445009
  H         1.1759888126       -0.6903105751       18.4319881130
  H         2.5244681277       -1.5963119481       19.1786425235
  H        17.1308390885        2.3979563107       21.2978574937
  H        17.0087693364        0.9516215358       22.2116931048
  H        18.3632233555        2.0585774688       22.4936946738
  C        12.4030536372        7.2848448107       10.0047070156
  N        12.2687852318        8.6133125679       10.0449815901
  O        11.4003410482       10.2442228958       11.4063765190
  S        13.0947034130        6.6432248521        8.5124718242
  C        12.5240274611        9.4871445787        8.9232779097
  H        12.7828451584       10.4917828342        9.2997404633
  H        13.3217508191        9.1679606198        8.3191812424
  C        11.1879536797        9.7105477689        8.2527365062
  H        10.5870359835       10.4195120001        8.8936738148
  H        11.3330854131       10.3385458765        7.3268641439
  H        10.7869736182        8.7762957139        7.9207709923
  H        23.1093081829        9.7863281814        2.3993230180
  C        22.6159072386       10.4584179319        3.0642441211
  H        23.2106662456       11.3535344367        2.9576866508
  C        22.7825157255        9.7644128086        4.5178248578
  C        21.1900971890       10.6346851023        2.5421544372
  C        21.9971880011       10.3641073876        5.7029767334
  H        22.4319085822        8.7895356382        4.3927683561
  H        23.8056863729        9.6840504049        4.8898488905
  H        21.0714498868       10.7978666390        1.4868023922
  H        20.6481655217       11.4395555403        3.0494369825
  H        20.6276402238        9.7118602244        2.7732755537
  C        21.1862057381        9.2632535316        6.4200162914
  H        22.7063937951       10.9770144177        6.3692969618
  H        21.3064174534       11.1385089298        5.3718159965
  C        20.5936157053        9.6457632992        7.7873536009
  H        21.9034216556        8.4316608247        6.6067722029
  H        20.4035303002        8.8641497430        5.7503549077
  C        19.3318700528       10.5810025624        7.7577782805
  H        21.3595788322        9.9094180729        8.4717907120
  H        20.3497873728        8.6755861598        8.2877156216
  C        18.0386024058        9.9011970118        7.2294666952
  H        19.1838612915       11.0131013850        8.7347894555
  H        19.6809394651       11.3559357484        7.0799419942
  C        16.9174156781       10.9389519663        7.0763894685
  H        17.7322497093        9.0925043853        7.8393826022
  H        18.2888524559        9.4579658357        6.2356400337
  C        17.2256274182       12.3157477607        6.4094587595
  C        16.5266569096       11.6020218734        8.3634974354
  C        15.7344149056       10.2261778219        6.4171682735
  C        17.0761514196       13.4205540651        7.2699947679
  C        17.7278219236       12.7030510766        5.1036595705
  C        16.6068342525       12.9746604924        8.4799518474
  C        16.0525282523       10.8429140739        9.4686239886
  H        16.1378229358        9.6660234968        5.5491058030
  H        15.4507720723        9.4678802858        7.1165263002
  C        14.5089888735       10.9982128270        6.1477272652
  S        17.5386697620       14.9112809279        6.5737130268
  C        17.9268077162       14.0720981587        5.0842705524
  H        17.9642405124       11.9377845026        4.3263167887
  C        16.3133971320       13.5462264552        9.6919838943
  H        16.0293302346        9.7681721269        9.3684558974
  C        15.5922825755       11.4814987179       10.6043660755
  H        14.6717175821       11.9657056566        5.6727405402
  H        14.0560824308       11.2927316532        7.0354093747
  C        13.3954491991       10.2932860721        5.2940945288
  C        18.4767171551       14.7809529225        3.8999140481
  C        15.6796814143       12.8349167802       10.7918181117
  H        16.3879247161       14.6108027094        9.8087494253
  C        15.1229944785       11.0383075405       11.7663825144
  H        12.4263395774       10.7130363285        5.5609413444
  H        13.2913286844        9.2276281244        5.5226342978
  C        13.7153262740       10.4018201822        3.8046044106
  C        18.4076358890       16.1716501344        3.7261473202
  C        18.8804110384       14.0089985353        2.7005526030
  C        15.2676274295       13.4688155763       12.0295398726
  C        14.9357757342       12.1409510710       12.6482951742
  S        14.8618834877        9.5126105520       12.4730927423
  H        14.4841843135        9.6439941842        3.6357273466
  H        14.1776660006       11.3435318280        3.6529106480
  C        12.4520657305       10.2279897781        2.9589124149
  N        18.0366796915       17.0885399431        4.6884092898
  C        18.6069605464       16.7982492427        2.4930028178
  C        19.1674766491       14.6380923684        1.4977861173
  H        18.9605107585       12.9543495584        2.7095453074
  C        13.9196893526       14.2475149312       11.8193977142
  C        16.3535062068       14.3567429353       12.6774101955
  C        14.6479608057       11.7179363786       13.9620793355
  C        14.5311590435       10.3297209193       14.0045377170
  H        11.6956028939        9.6657372811        3.5585657097
  H        12.0410442426       11.2521827939        2.9214035939
  C        12.5690113712        9.5498218457        1.6066962009
  S        18.0940720604       18.5634414697        4.1152963531
  N        18.4838018553       18.2246976988        2.5748595873
  C        18.8996222804       16.1103073267        1.3025244065
  H        19.3970961162       14.0393289087        0.6254023057
  H        14.1670863234       15.0595482514       11.1129057378
  H        13.6330680117       14.6845140766       12.7010576130
  C        12.7719599592       13.4439724717       11.2169553328
  H        16.6305224997       15.1242667307       11.9225636182
  H        15.9409693242       14.8449172273       13.5704654533
  C        17.6213914564       13.6144466232       13.0359618891
  H        14.5462902309       12.4768098823       14.6843714165
  C        14.1640625742        9.6011483737       15.2186081301
  H        11.7183551813        9.9379684604        1.1833970954
  H        12.4193828040        8.4755684037        1.7312050514
  C        13.7823360158       10.0122536667        0.7561349627
  C        19.0390782438       16.8093019743        0.0808112888
  H        13.1107281422       13.0924746525       10.1798685104
  H        12.4437690963       12.6401716360       11.8784753907
  C        11.5514402386       14.3630014354       10.8997490126
  H        17.9980194845       13.0480316024       12.1786327310
  H        17.3213789113       12.8266020524       13.7047629942
  C        18.7024156917       14.4065355136       13.7876716727
  C        13.8853761915        8.2566809054       15.2790146007
  C        13.9845622325       10.3226607430       16.4933322449
  H        13.8388079332       11.0805357095        0.8503781890
  H        14.7222944612        9.6261446613        1.1233558735
  C        13.4336039074        9.7501112590       -0.7316321762
  H        18.9433688181       17.8452947043        0.1669495467
  C        19.2990113463       16.4099564802       -1.1705243597
  H        11.8405154102       14.9592693562       10.0349917119
  H        11.2412748605       14.9319747676       11.7289598364
  C        10.3770313423       13.4846073842       10.4795278491
  H        18.7331094933       15.3354024855       13.1266955706
  H        18.4229702824       14.8339469808       14.7900025515
  C        20.0444644194       13.6655106501       13.9755159822
  N        14.2791202389        7.3360751847       14.2800990103
  C        13.5001001792        7.6196515212       16.4529628863
  C        13.6026443733        9.8076433555       17.6719244740
  H        14.2296117871       11.3969678364       16.4762515396
  H        13.5104616850       10.6793957449       -1.3100091885
  H        12.4659900344        9.3281526750       -0.8446672944
  H        14.2009638796        9.0359123331       -1.0982098864
  S        19.6398029961       14.8224115372       -1.8049570107
  C        19.3006160223       17.5048534474       -2.2123546428
  H        10.6594061855       12.9717076105        9.5532862345
  H        10.1123769002       12.8051809251       11.2459021376
  C         9.2330700328       14.3550348627        9.9994080467
  H        20.1522571434       12.8448768502       13.2755944036
  H        20.1750528187       13.2941850561       15.0437263146
  C        21.1767079048       14.7176305121       13.8332583364
  S        14.0983711064        5.8091961913       14.8698738092
  N        13.3743123600        6.2406370871       16.3191809546
  C        13.2734219380        8.3024986044       17.6868498434
  H        13.8068182119       10.3499211093       18.5683058831
  C        19.8635439542       15.5996071656       -3.3578579404
  N        19.6757268929       16.9147460221       -3.4151019803
  O        19.1148331799       18.7073375997       -1.9351116943
  H         8.9420848040       15.0501133183       10.7987395559
  H         9.6763287251       14.9373340535        9.2210000288
  C         8.0755455075       13.5469680675        9.3882087412
  H        22.1175035914       14.2128138855       13.8051217903
  H        21.1966689494       15.3006605576       12.9148171013
  C        21.3379497855       15.6903089098       15.0445052438
  C        12.8119513457        7.5330565355       18.7753206018
  S        20.1491697445       14.7057914037       -4.8424751799
  C        19.6856036364       17.6919193862       -4.7004376514
  H         8.4822375459       12.8416534101        8.6800912448
  H         7.5910121908       12.9560470736       10.1071610099
  C         7.0622742777       14.3917644074        8.7570275815
  H        22.0154735504       15.2239930081       15.7559261230
  H        20.4470344966       15.7764822840       15.6481344041
  C        21.8269909919       17.0690750149       14.7612125309
  H        12.6263539105        6.4631552079       18.5479115488
  C        12.3969917911        7.8613309830       20.0305491799
  H        20.4541546254       17.1796940570       -5.3303473020
  H        20.1111432980       18.6220212736       -4.5206869771
  C        18.2951555158       17.8061118077       -5.3189595654
  H         6.7323669295       14.0970116826        7.7955931892
  H         7.4593113583       15.3912821717        8.5338963353
  C         5.7442620238       14.2903282281        9.5884062622
  H        22.8798877580       17.1061725196       14.5982877773
  H        21.2503904919       17.4392405732       13.8894948776
  C        21.3981570319       18.0140875030       15.8769346732
  S        11.9918472268        9.5130301354       20.6111404530
  C        12.2491555705        6.8468868478       21.0165442255
  H        17.7062471145       16.9373288307       -5.0497443721
  H        18.3010588996       17.8306555790       -6.3986639492
  H        17.7607869980       18.6745250197       -4.8939178704
  H         5.6418801949       15.0273936220       10.3516952793
  H         5.0164248165       14.5388614114        8.8783389883
  H         5.4934927632       13.2400242065        9.9435921085
  H        20.7383350994       18.8487799509       15.5855731760
  H        20.9952722096       17.4810597016       16.6536118474
  H        22.3201632211       18.4280613918       16.2138647874
  C        11.6393037583        8.7477434101       22.1651515999
  N        11.8259329320        7.3655224730       22.1500381296
  O        12.6063791334        5.6751487356       20.7893622617
  S        10.9802370659        9.5215556758       23.6521003805
  C        11.6545959637        6.4654192155       23.3431069311
  H        11.6940098885        5.3743911995       23.0485544951
  H        10.6613099080        6.7577334651       23.7857903517
  C        12.8890266642        6.8435217066       24.2961355232
  H        12.7534278135        6.0606035362       25.0558121311
  H        12.8974844164        7.8195211401       24.8296821006
  H        13.8381671393        6.8020552106       23.7976008324
