352
 i =    56500, time =    56500.000, E =        25.2476570752
  H        11.8433684606        4.5345679636       32.3259545655
  C        11.1243218829        5.2882715152       31.8952866862
  H        10.3446166699        4.6955851910       31.4795631846
  C        11.8003893324        6.2356245954       30.9414999788
  C        10.5191107213        6.0776440906       33.1068939205
  C        12.1217282736        5.5337944225       29.5957849739
  H        11.1730732242        7.0908257172       30.8440994953
  H        12.6511545007        6.6321304955       31.3187417901
  H         9.5223122898        6.4173331363       32.7393639935
  H        10.4542400696        5.2816967624       33.8759768087
  H        11.1024459481        6.8494479361       33.5144598074
  C        10.7327574036        5.5339249987       28.8033317622
  H        12.3829876734        4.5141674195       29.6303135536
  H        12.8516012737        6.0030671593       28.9830359022
  C        11.0730956511        5.5835633396       27.2944086214
  H        10.1318941186        4.6580832224       28.9208941848
  H        10.0758774565        6.3210596854       29.0893856554
  C         9.8956417906        4.8716310712       26.4837344691
  H        12.0479785181        5.0607884140       27.2753752340
  H        11.3353039682        6.6279916030       27.0254033077
  C         8.6601534984        5.6993169475       26.0672986140
  H        10.3012331638        4.4605888771       25.5551754201
  H         9.5493745048        4.0076938546       26.9856344905
  C         7.4658686559        4.9392306570       25.5270791193
  H         8.4242042408        6.3084945019       26.9379247887
  H         8.8518667782        6.3162545320       25.2731518061
  C         7.1412554509        3.6233164935       26.2538115813
  C         7.7934965191        4.1821574565       24.3581637138
  C         6.2686269784        5.9074394604       25.3838173380
  C         7.2459793079        2.4953085140       25.4289361658
  C         6.6310466799        3.2396747418       27.4875009598
  C         7.8466395031        2.8392048408       24.2139345111
  C         8.1403498668        4.8824088047       23.2464297010
  H         6.4771912792        6.6281380429       24.6136498404
  H         6.1673667850        6.3977628058       26.3512894910
  C         4.9354834487        5.2095757342       24.9759926666
  S         6.7220068576        0.9951105509       26.1125741429
  C         6.3692237768        1.9169228292       27.6020559548
  H         6.5205259961        4.0152232231       28.2137513755
  C         8.1000930336        2.3158882579       23.0412436673
  H         8.1424886407        5.9396448469       23.4087489238
  C         8.5223782207        4.3850804801       22.0463235227
  H         5.0260402425        4.7141024429       23.9947084642
  H         4.7663889120        4.3815086458       25.5716620732
  C         3.6883691840        6.0662823918       24.8590761161
  C         6.0284968367        1.2726381338       28.9000075137
  C         8.4784584750        3.0251341864       21.9016774033
  H         8.0983777999        1.2868917873       22.9822422253
  C         8.9442511501        4.7941632592       20.8001348442
  H         2.9574260501        5.4754777693       24.2882425804
  H         3.8411343088        6.9417623863       24.2919959246
  C         3.1467254289        6.2571728894       26.1830929963
  C         6.0568753681       -0.1156584172       29.1811236923
  C         5.6672906321        2.1177518418       30.1172076230
  C         8.8193424721        2.3165232950       20.6508541037
  C         9.0681314029        3.6892992692       19.9642948984
  S         9.1819870511        6.3138001617       19.9745815290
  H         2.3813967736        7.0556931249       26.1737947897
  H         3.9246165684        6.4875692749       26.8571067956
  C         2.3838101731        4.9656041310       26.6784111299
  N         6.1103796797       -1.0948032157       28.2108941654
  C         5.8573897887       -0.6829633654       30.4642227308
  C         5.4413045663        1.5532629612       31.3802337321
  H         5.5941526780        3.1512297823       29.9731310312
  C         7.6665621547        1.6191442323       19.8224429705
  C        10.0651216821        1.4904007460       20.7708714141
  C         9.5203971302        4.0860412406       18.7030851319
  C         9.5392749405        5.4301311411       18.5728853820
  H         1.8505524999        4.4411960257       25.9177015531
  H         3.0205108766        4.2216472481       27.0673285128
  C         1.4243196894        5.1584745894       27.8407364073
  S         6.3608788708       -2.5904911457       28.8864110666
  N         6.0427483104       -2.0949529407       30.4615471638
  C         5.4439385395        0.0441396617       31.5775759528
  H         5.2289013958        2.2781611903       32.1220643567
  H         7.3333817963        0.8212186963       20.3916189314
  H         7.9469817656        1.0940207494       18.8841273633
  C         6.3857086681        2.4593953030       19.7072891960
  H        10.3399016610        1.1646343760       19.7160529938
  H         9.9780478679        0.5967447892       21.3149398189
  C        11.2931970314        2.1975645826       21.4552838231
  H         9.7097683798        3.2930909562       17.9666073893
  C         9.7911127479        6.0824859976       17.2223690980
  H         0.8009312269        4.2717423841       27.9482682754
  H         0.7332932219        5.9613160683       27.7130973496
  C         2.1941786583        5.3634830884       29.1986801518
  C         5.2639479384       -0.6378958024       32.8095950356
  H         6.5504376210        2.9623127169       18.7159464624
  H         6.0620236963        3.1624585510       20.5163876241
  C         5.2889560089        1.3831905802       19.4505806377
  H        10.9559964909        2.5239096432       22.4695285836
  H        11.6126354452        3.1213394459       20.9944392384
  C        12.4229813785        1.1050385638       21.6100417824
  C         9.9298961270        7.4811809266       17.0117818748
  C        10.1676524660        5.2879556394       16.0588028866
  H         3.1414192583        4.8287789238       29.2719863028
  H         2.3677264985        6.4072901057       29.3668202747
  C         1.2840357178        5.1396556849       30.4073244923
  H         5.2938068458       -1.6912772915       32.7149464506
  C         4.9254966117       -0.2458772412       34.0886913128
  H         5.0035081303        0.9287362647       20.3788025124
  H         5.7511772320        0.6222623942       18.7503275343
  C         4.0942545920        1.9955266574       18.7272408739
  H        12.1284345349        0.4861980897       22.4379249846
  H        12.3248926439        0.6563119334       20.6827642738
  C        13.9001008861        1.4825772278       21.7424370392
  N         9.6389076431        8.4088349985       18.0271175506
  C        10.2634311759        8.0791518986       15.8080498220
  C        10.4281168532        5.8338393544       14.8358573646
  H        10.0457349855        4.2428723652       16.0439592567
  H         0.5768679272        4.3368846636       30.2247921023
  H         1.7497003811        4.9633814495       31.3715420387
  H         0.6086489115        5.9514692236       30.6479568727
  S         4.5489810605        1.3565925844       34.5747728040
  C         4.8755305296       -1.2632542047       35.1454024161
  H         3.8929463161        2.9579286661       19.2595846333
  H         4.3425789244        2.3083551495       17.6122905007
  C         2.9937966604        0.9892182999       18.7366591455
  H        14.1132950394        2.3227364323       21.1086339781
  H        14.5385721751        0.7183997550       21.2136180153
  C        14.3032878463        1.8760296939       23.1378294716
  S         9.5755312308        9.8743694389       17.3309084384
  N        10.2801029915        9.4740249699       15.8680854778
  C        10.4351877049        7.3327552607       14.6299482438
  H        10.4150438617        5.1650020485       13.9298642122
  C         4.3969703089        0.6478373648       36.1385461560
  N         4.5434741018       -0.7241091516       36.3055718444
  O         5.0941625682       -2.4274621232       34.9216331920
  H         1.9818327517        1.4532134658       18.8017113082
  H         3.0340350373        0.3608085047       19.6526682222
  C         2.9251539848        0.1728754896       17.4418735407
  H        13.5360975455        2.5476876513       23.5473019119
  H        14.2041613681        1.0283900378       23.7934846401
  C        15.7452261387        2.4619949738       23.1078962154
  C        10.6012299298        8.0646631081       13.4104536450
  S         4.1571640158        1.6119557060       37.5802764778
  C         4.6460309621       -1.3985240278       37.6095190407
  H         2.6735477365        0.8418652744       16.6099079929
  H         3.9572963696       -0.2250763308       17.2521277621
  C         1.7867827554       -0.8540844265       17.3691041674
  H        16.1328438890        2.6369322338       24.0955443041
  H        15.7297983496        3.4634773376       22.5713104129
  C        16.7828568899        1.5458314834       22.4107725768
  H        10.1653017109        9.0784337288       13.4396076567
  C        11.2021054581        7.8459976298       12.1855696940
  H         3.7198068774       -1.2459656386       38.2172290863
  H         4.5284164712       -2.4662817764       37.2888596429
  C         5.9785709462       -0.9186594271       38.2934921929
  H         1.4961554744       -0.8620670105       16.3063500210
  H         0.9202018600       -0.5189502436       17.9276237097
  C         2.2397453143       -2.2908093258       17.7822952222
  H        16.7328078748        0.5359341439       22.8720887547
  H        16.5139309377        1.4172423664       21.3384413378
  C        18.1942073403        2.1860098511       22.4066154835
  S        11.9701938033        6.3788720164       11.6460249360
  C        11.3121748915        8.9851827154       11.2297417164
  H         6.4025404266       -1.8090256431       38.8242335906
  H         6.5721548119       -0.6799050785       37.4353697184
  H         5.8327814723       -0.1007708458       39.0025544682
  H         2.6051978329       -2.3917097852       18.8645878586
  H         2.9916861520       -2.6793264856       17.0900040094
  H         1.3625858962       -2.9643036149       17.7548363957
  H        18.3429486331        2.9618027555       21.7377955418
  H        18.8202903456        1.4181876292       22.0493216258
  H        18.4715016597        2.5664273662       23.4604309224
  C        12.4817167159        7.3024570451       10.2400951813
  N        12.0621954377        8.5710259416       10.1769219395
  O        10.9752493615       10.1483199369       11.4494216777
  S        13.1256604109        6.6048438921        8.7313403703
  C        12.1371172894        9.4428134165        9.0167541943
  H        12.4062047753       10.5021639756        9.3605263758
  H        13.1184138266        9.3306749723        8.4545864390
  C        10.8773346293        9.2735132385        8.1538299507
  H        11.1611673000        8.7120331632        7.2780821181
  H        10.0307156174        8.8587184359        8.6584682127
  H        10.5967092142       10.2129759006        7.8331452321
  H        21.7521378870        8.4316137508        4.2447062773
  C        21.9652781996        9.3844002212        3.7895327505
  H        22.8519098998        9.3479459597        3.1099217796
  C        22.5670523837       10.2284781921        4.9259405564
  C        20.7648546123       10.0105537351        3.1613209945
  C        21.6577358297       10.5436948114        6.1504417413
  H        23.4550138505        9.7574841011        5.3533405499
  H        23.0349674959       11.1241428986        4.5452374795
  H        20.9288322514       10.9591716265        2.6864111349
  H        19.8186174098       10.0738758817        3.7157052619
  H        20.4420207167        9.3508855154        2.3512110916
  C        21.0766471106        9.3004550883        6.8938135564
  H        22.3799518038       11.0851531117        6.8141665972
  H        20.8626861487       11.1738540993        5.7875723734
  C        20.1425997072        9.5527096724        8.0514267050
  H        21.9270155744        8.5455142836        7.0637289179
  H        20.2647240664        8.8144042698        6.2643591552
  C        18.9819510542       10.4533168888        7.6930692361
  H        20.5933008814        9.9383082791        8.9919475719
  H        19.6633774309        8.6418002132        8.3077707329
  C        17.7036520810        9.7281168221        7.2221186084
  H        18.6700645110       10.9260770855        8.6396897648
  H        19.2175147276       11.3745692151        7.1465864520
  C        16.4601890765       10.6237947232        7.0310114280
  H        17.3898279219        8.8604240269        7.8318171801
  H        18.0115557662        9.2258107900        6.2952811785
  C        16.8739474644       11.9284910163        6.3278561375
  C        16.1225794689       11.3890865435        8.2838161239
  C        15.3052746783        9.9221716051        6.3795726296
  C        16.7144953401       13.0172205254        7.1871257248
  C        17.3208295405       12.4071619976        5.1136112692
  C        16.2462725315       12.6666923933        8.4546948131
  C        15.6933216367       10.6431886446        9.4396835067
  H        15.5790563643        9.3664003186        5.5358991358
  H        15.0458849690        9.2932668832        7.1964950545
  C        14.1378226492       10.8307102691        6.0798627273
  S        17.2227871482       14.5273134750        6.5092789775
  C        17.5737423468       13.7562417309        5.0030886296
  H        17.5081004849       11.7151397391        4.3329827073
  C        15.9273587940       13.2633204197        9.6658131185
  H        15.4635712816        9.5903256954        9.3613901465
  C        15.3893602271       11.2640435952       10.6336207539
  H        14.4464117962       11.7917650560        5.6962579090
  H        13.7514786648       11.0233270532        7.0871259126
  C        13.0765371455       10.2439557616        5.1498086745
  C        18.0042522433       14.4719485412        3.7377426003
  C        15.4665161193       12.5826668419       10.8051750830
  H        16.0343444580       14.3717643778        9.7213424807
  C        14.9803896110       10.8237075084       11.8505476484
  H        12.1799633096       10.8362541337        5.4201083821
  H        13.0542317503        9.2208761240        5.4121090304
  C        13.5169939697       10.3005781626        3.6797266386
  C        18.0714186704       15.8586442936        3.6128574880
  C        18.3052703033       13.6415466591        2.5327910480
  C        14.9852961993       13.2948424724       12.0589833997
  C        14.7220055604       11.9162523003       12.7539703926
  S        14.5604669215        9.2931201925       12.6075689652
  H        14.2085457048        9.5342853640        3.4968763903
  H        14.0617858793       11.2726620253        3.4859190586
  C        12.2358061336       10.2308196577        2.8258210169
  N        17.6785110936       16.7354744063        4.6438810237
  C        18.3184850187       16.5056259456        2.4185524728
  C        18.5592257069       14.2718839753        1.2872419359
  H        18.2243225260       12.5476632500        2.5547731195
  C        13.7284374939       14.1761024407       11.8634823669
  C        16.0482038226       14.1400146096       12.7362375957
  C        14.3556833548       11.4637253448       14.0003405881
  C        14.2539483948       10.1132371228       14.0772762174
  H        11.4774453889        9.7036954385        3.3901754624
  H        11.8573089761       11.3708045729        2.7487898391
  C        12.2172421032        9.6534454738        1.3947344038
  S        17.7540162739       18.2587606272        4.0619378018
  N        18.1935258834       17.9029622794        2.5115211496
  C        18.6435909272       15.7851101131        1.2176432302
  H        18.5645768071       13.6463080593        0.3819946376
  H        13.9605455040       15.0682359915       11.2517891808
  H        13.4482556085       14.7524111268       12.8110695802
  C        12.5909721385       13.3190159564       11.3098917147
  H        16.4400516084       14.8002431225       11.9565920314
  H        15.6228987303       14.7288828059       13.5574620630
  C        17.1318747848       13.2793060455       13.3507093942
  H        14.0476771357       12.1109027346       14.8054200819
  C        13.8168038358        9.4348244842       15.2807784284
  H        11.1823118670        9.8787271834        0.9850730575
  H        12.3208458144        8.5821001309        1.4114286807
  C        13.3454787290       10.2191546743        0.5387810257
  C        18.9842873030       16.5319375388        0.0391524958
  H        12.8935920389       12.8358338083       10.3840826681
  H        12.1708607101       12.5369776366       11.9829950635
  C        11.4247684888       14.1996908977       11.0324797101
  H        17.4075282547       12.4869079036       12.7126423846
  H        16.8269608099       12.8203643139       14.2818095666
  C        18.3265651059       14.1853075160       13.8222493167
  C        13.7135610924        8.0191153290       15.3764533264
  C        13.5906689460       10.1781882051       16.5337540852
  H        13.7065596343       11.2136995290        0.8169385716
  H        14.2079391987        9.6362514504        0.8409286821
  C        13.0159890869       10.3043383348       -1.0127508385
  H        18.9749545588       17.5680619415        0.2244467293
  C        19.2069359591       16.2102862330       -1.2669367144
  H        11.7337149104       15.0608731825       10.3490936644
  H        11.0928722832       14.5731966305       11.9454370229
  C        10.3213406386       13.4156010750       10.2957163605
  H        18.5195934900       14.9174280766       13.0095728516
  H        17.9371593335       14.8032070323       14.5809227080
  C        19.6232389638       13.4108195737       14.1253685281
  N        14.1355411950        7.0089883399       14.4370444511
  C        13.3209177994        7.3618388385       16.5877003221
  C        13.1631940995        9.4873860505       17.6938093692
  H        13.7551500393       11.2093859326       16.5636356440
  H        12.4324619138        9.3940813828       -1.3337919134
  H        14.0426270803       10.3662318715       -1.4791120718
  H        12.6294151416       11.3170548561       -1.2656546457
  S        19.3566789460       14.6291322147       -1.8528325266
  C        19.2722108498       17.3234858097       -2.2359391069
  H        10.7475448672       13.0096104866        9.4099830857
  H         9.9535080872       12.4810784306       10.8066952560
  C         9.1149412588       14.2221821414        9.9092958251
  H        19.7785746907       12.6791872024       13.3093765425
  H        19.4680519928       12.7913458485       14.9733217016
  C        20.8696521279       14.2130714636       14.3986542953
  S        14.0229446001        5.5524560245       15.1353766038
  N        13.3190763840        5.9573681081       16.5186778870
  C        13.0473498960        8.0494360108       17.7680286090
  H        12.9942982351       10.1658688569       18.4862380990
  C        19.4554784486       15.4647698184       -3.4522734513
  N        19.5987943732       16.7930889534       -3.4042178358
  O        18.9538207365       18.4599253457       -2.0443172269
  H         8.6225053525       14.6599319820       10.7152147794
  H         9.5412479111       15.0955966794        9.2973733302
  C         8.0346447484       13.2327402246        9.3046310872
  H        21.5331955084       13.4174192913       14.7587069791
  H        21.2503949942       14.7134835513       13.5093943872
  C        20.5245820275       15.2270734207       15.4816068543
  C        12.8746256786        7.2168405823       18.9555752408
  S        20.0251728056       14.6524175519       -4.8912877811
  C        19.6898153413       17.5845184800       -4.6623176629
  H         8.3931534110       12.6748762693        8.4325901643
  H         7.8864134910       12.3880026532       10.0074018433
  C         6.6966801952       13.9349027183        9.1032708885
  H        19.9463216668       14.7717434106       16.2472874850
  H        19.8070702623       15.9632415438       15.0251795729
  C        21.8140771587       15.8370777656       16.0302351951
  H        13.0625134882        6.2007453709       18.7731417524
  C        12.4344459788        7.5080568373       20.2009271804
  H        20.2980229161       17.3754345510       -5.5184976527
  H        19.9963066044       18.5822836419       -4.3672375452
  C        18.2785171047       17.7365703422       -5.3123264727
  H         6.1062038673       13.2835809206        8.4948205431
  H         6.7221123942       14.8004164218        8.5034393982
  C         5.8322787699       14.0290633354       10.3511257294
  H        21.8564742318       15.8101641437       17.1150745342
  H        22.6711229721       15.2408580630       15.7504952252
  C        21.9812852267       17.2143844640       15.4290798748
  S        11.8865998377        8.9770943737       20.8219799442
  C        12.3435794138        6.3296076385       21.0922511745
  H        18.0785921677       16.9162974170       -6.0536221210
  H        18.3634471549       18.5840939627       -5.9950805647
  H        17.4487879059       17.8174540395       -4.6625451259
  H         6.4031361687       14.5607313049       11.0987129219
  H         4.9142237223       14.5794538637       10.0484231660
  H         5.5694303669       12.9948383676       10.6903726758
  H        21.1095434151       17.7955554030       15.3375383826
  H        22.6198738533       17.8081908286       16.0970413722
  H        22.3893089207       17.2810584116       14.4114968263
  C        11.5311106168        7.9705069847       22.3262463740
  N        11.8883774699        6.6451188534       22.2912963040
  O        12.7802450806        5.1693653856       20.8529430112
  S        11.1131355506        8.5862136355       23.8813417502
  C        11.9533351623        5.8063864080       23.4128778927
  H        11.6241397484        4.8128264173       22.9674647907
  H        11.1236231642        5.9838119110       24.1297330487
  C        13.3466683638        5.9863315901       24.0918128360
  H        14.0698542504        6.3798834569       23.4054983165
  H        13.7143125984        5.0225613781       24.3391002137
  H        13.1865520203        6.6296844566       24.9599026275
