352
 i =     5100, time =     5100.000, E =        31.6807000890
  H        12.1836692849        5.1377479728       31.8668079249
  C        11.0818091839        5.3239084121       31.9246798441
  H        10.4251456145        4.4878409939       31.7802826179
  C        11.0152913624        6.3347714833       30.7868977842
  C        10.7520748343        5.9116861902       33.3532748073
  C        11.4175458389        5.8130984321       29.4015768782
  H         9.9496774243        6.5734216782       30.7678999886
  H        11.4581190451        7.2733859120       31.0212411545
  H        11.2092818103        6.9236091076       33.4584667695
  H         9.7002724943        6.1837540957       33.4293402665
  H        10.8856001866        5.2398587907       34.2341822525
  C        10.2059079230        5.5818158821       28.5810437228
  H        12.0494536140        4.9334286471       29.3948737634
  H        12.0163290204        6.5587862239       28.8420261292
  C        10.6989461086        5.3948183164       27.1396960857
  H         9.6133360505        4.7008294421       29.0022948755
  H         9.5753245681        6.4621570996       28.6490069175
  C         9.6145636218        4.8851426263       26.2735099307
  H        11.5179367615        4.7328764794       27.1748109662
  H        10.9220603714        6.4045709769       26.8475624254
  C         8.3262999692        5.7414948872       26.0462044598
  H         9.9222486278        4.5551750297       25.3001415291
  H         9.3766083382        3.9621123788       26.7677345872
  C         7.0856222771        5.0756802148       25.3587632351
  H         8.0415803752        6.0469019167       26.9683964317
  H         8.5849340156        6.6075600292       25.5612398559
  C         6.6897190340        3.8161333877       25.9296982421
  C         7.5094091457        4.3730941003       24.1105243432
  C         5.8391078306        6.0411574798       25.2787358560
  C         6.9202773755        2.7072453353       25.1665019339
  C         6.2150651155        3.4225569306       27.2294766937
  C         7.4446430264        3.0303368407       23.9523178479
  C         7.8588980844        5.0310152413       22.9430918228
  H         6.0517535790        7.0577924050       24.9061485940
  H         5.6129945494        6.2480009000       26.3023022381
  C         4.6274780399        5.2703090976       24.7492708618
  S         6.7387092363        1.1873254196       25.9176378352
  C         6.1422552431        2.0825827706       27.3569075454
  H         5.9959214926        4.2026088106       27.8913174934
  C         7.9113974680        2.3519551160       22.8259291070
  H         7.9598244631        6.0557265058       23.0043456239
  C         8.2552864850        4.4037877000       21.8027807379
  H         4.8551858293        4.8189824620       23.7465697088
  H         4.2418185879        4.4984329158       25.4715819860
  C         3.3880338331        6.2405196737       24.6610348086
  C         5.6967021519        1.3937395738       28.6482690729
  C         8.3534007482        3.0617282633       21.6865447171
  H         7.9126832923        1.2804661328       22.8653083613
  C         8.7225664265        4.8647219508       20.5796444614
  H         2.6208014474        5.8402290289       24.0455187866
  H         3.6930979259        7.1970021977       24.2130419318
  C         2.7312843420        6.5260007335       26.0011091577
  C         5.8930102455        0.0336439288       28.9785243553
  C         5.2175372388        2.2408214234       29.7230077745
  C         8.7810769643        2.4014284568       20.4014089536
  C         8.9731247961        3.8287301703       19.6902519535
  S         9.0018071143        6.3988596279       19.8586513054
  H         2.1156898799        7.4314609886       25.8128678761
  H         3.4098131083        6.6830661199       26.7774271400
  C         1.8334219794        5.3305048599       26.5003716164
  N         6.3684283374       -0.9532117887       28.1454865717
  C         5.4621232618       -0.5148372879       30.1755686305
  C         4.9161308968        1.6869197118       30.9800986137
  H         5.2549765057        3.3503018217       29.7016758380
  C         7.5747260307        1.6392364147       19.7630263220
  C        10.0897953270        1.7019901113       20.7121375026
  C         9.4134967992        4.2641418051       18.4724710467
  C         9.6217014245        5.5989126156       18.4183075626
  H         1.1171326542        5.2576186797       25.6522972919
  H         2.4669464542        4.3807066511       26.6275237031
  C         0.9000786124        5.5259786946       27.7513921852
  S         6.2759488623       -2.3925521327       28.9007574170
  N         5.5968521573       -1.9247163908       30.2769373230
  C         5.0414326959        0.2530453113       31.2844786778
  H         4.5953550586        2.3354069890       31.6979031615
  H         7.2202204773        0.9568744310       20.4817653129
  H         7.8481184508        1.0592138729       18.9173416807
  C         6.5186851756        2.5319206616       19.0743561086
  H        10.4348936733        1.2480688364       19.8130738614
  H         9.8360722771        0.8189299405       21.2711767812
  C        11.2134284354        2.5645051094       21.3562430745
  H         9.7099044825        3.4068624908       17.8514396425
  C        10.1129261398        6.3941262595       17.2595123901
  H         0.2204100435        4.6854904027       27.8406490468
  H         0.4111597722        6.4869389808       27.5747837323
  C         1.8428048108        5.5340539260       28.9960085330
  C         4.8779220154       -0.3787954036       32.5554259809
  H         6.9914428134        3.0537430241       18.2305830409
  H         6.1723997636        3.1696961614       19.8002079587
  C         5.3430388875        1.6903022525       18.5943677663
  H        10.9176691877        3.2201892638       22.1513607293
  H        11.4451344733        3.2091731331       20.5431269798
  C        12.5542588158        1.9157873953       21.5177729255
  C        10.2352462846        7.8291944271       17.1033134235
  C        10.3840650726        5.6781342992       15.9937824758
  H         2.4241187290        4.6967243917       28.9905415667
  H         2.5245913216        6.3481912220       28.8137312072
  C         1.0225619487        5.7992679102       30.2400588878
  H         4.9692001156       -1.4659338207       32.6157576545
  C         4.7036243590        0.0641734313       33.8366612129
  H         4.6967568968        1.2953346627       19.4156873622
  H         5.7007493844        0.7053123459       18.1423706533
  C         4.4739486105        2.3335586569       17.6302624573
  H        12.4979500921        1.1414427838       22.2708813349
  H        12.9013048187        1.4209175673       20.6034806034
  C        13.6427490645        2.7213253569       22.1183947398
  N        10.0090911213        8.7737544567       18.1405386482
  C        10.4290564942        8.4840962988       15.8997781422
  C        10.5446076937        6.3483025389       14.7695032096
  H        10.1841463506        4.5541394927       15.9510628485
  H         1.7862998573        5.8250652852       31.1286947329
  H         0.4020323093        6.6222106857       30.0456915865
  H         0.5222083095        4.8572684849       30.2390611506
  S         4.5043515206        1.6956416167       34.3009842864
  C         4.5097066171       -0.9024019985       34.8898803202
  H         4.2389263868        3.3669264213       17.8961710607
  H         4.9617345629        2.4101576601       16.6590718964
  C         3.1291061059        1.6688309503       17.6209620369
  H        13.5621169859        2.8106552010       23.1291009943
  H        13.7470482617        3.7431029866       21.7975088471
  C        15.0498196055        2.0632124407       22.0428195305
  S        10.1126890023       10.2480744644       17.5745174145
  N        10.3824687595        9.9359124417       15.9785354686
  C        10.5618409419        7.7759940714       14.6659681008
  H        10.5692211669        5.8194085346       13.8044683644
  C         4.1868134098        1.1191360867       35.9332276915
  N         4.3023878189       -0.2232364826       36.0486918671
  O         4.6871897704       -2.1078039285       34.9122290454
  H         2.5002465253        2.3388381869       16.9853739916
  H         2.7142281163        1.8217220149       18.5867924516
  C         3.1167817713        0.2640724118       17.1403219840
  H        14.9220057445        1.0436656996       22.2611849912
  H        15.4020165024        2.1587942131       20.9730941070
  C        16.0480125709        2.8229391722       22.9215359977
  C        10.7724849208        8.5578311337       13.5143588476
  S         3.7815952375        1.9997654553       37.4146609351
  C         4.2026631147       -0.8801686926       37.3432075104
  H         2.6075078109        0.2616852879       16.2326127155
  H         4.1570955645       -0.1505381507       16.9427639694
  C         2.3404542125       -0.5530864831       18.1171155826
  H        15.5966766647        3.4010597545       23.7478388896
  H        16.3801986073        3.5936332070       22.1812774364
  C        17.2038637010        1.9114288936       23.3193282491
  H        10.7767135964        9.6314688696       13.7200434991
  C        11.1964462297        8.2312803168       12.2655475732
  H         3.4901113382       -0.4703046491       38.0287452810
  H         3.8490672434       -1.8077372618       37.0671200426
  C         5.5936436249       -0.8932235126       37.9488952874
  H         1.5558347787        0.0493714183       18.6227431433
  H         2.9118790061       -1.0971729658       18.9068300249
  C         1.5897384886       -1.6916072749       17.3421643834
  H        17.6846127621        2.5308792108       23.9857017275
  H        16.9503476043        0.9464504999       23.8067784161
  C        18.2694463125        1.7019197050       22.3048302256
  S        11.6970392122        6.6753179630       11.6007661927
  C        11.3493766037        9.3207826100       11.2837082528
  H         5.6779482402       -0.0149336661       38.6243157809
  H         5.7603262010       -1.7430661552       38.5491490292
  H         6.3209466293       -0.7971712920       37.2307175137
  H         1.2953166997       -2.5710244783       18.0031078372
  H         2.2621351479       -1.9446117082       16.5151581978
  H         0.6272884749       -1.2399203064       16.9084954970
  H        18.6743134578        2.5197096725       21.7293864573
  H        17.9158099539        1.0769758954       21.6822222403
  H        19.0683048488        1.1557413360       22.9008237893
  C        12.3914719058        7.6357069898       10.2860815424
  N        12.0829007854        8.9244288154       10.2563724669
  O        11.0789917776       10.5165533857       11.4182432099
  S        13.1422960414        6.7947587629        8.7821730369
  C        12.2630911815        9.7925281501        9.1055858681
  H        12.3502281594       10.8727990634        9.4310978073
  H        13.1885860925        9.6393162945        8.5277064140
  C        10.9127290183        9.7001755569        8.2518788185
  H        10.1591532455       10.2072933025        8.8413816522
  H        11.1205753039       10.3123322646        7.3373873938
  H        10.3896199223        8.6657819830        8.0318202148
  H        21.7116396913       11.3604463922        3.7227034442
  C        21.9363266367       10.2396056000        3.8733135921
  H        20.9745854146        9.7817035387        4.2014315662
  C        22.8079664684       10.3214217121        5.0651603397
  C        22.4099716926        9.5450964764        2.6694388486
  C        21.9582774364       10.7116789234        6.2925809037
  H        23.5185205862        9.5345991042        5.1674583836
  H        23.5087911576       11.0326323986        4.6530825696
  H        21.7134815531        8.8881509682        2.2295786603
  H        23.3275732111        8.9965042179        2.7201277667
  H        22.6717703708       10.3537650898        1.9736687667
  C        21.2082229908        9.5169718547        6.8810597087
  H        22.6447139168       11.0672203776        6.9946798221
  H        21.3120912618       11.5302399688        6.0043418431
  C        20.6084788730        9.8391376261        8.2495476313
  H        22.0525204207        8.8202447745        7.0411465823
  H        20.4319119384        9.0628519884        6.2399067731
  C        19.2882451187       10.5920692866        7.9884541497
  H        21.4043908044       10.4628338186        8.8407412277
  H        20.5158613631        8.9275206515        8.8083465553
  C        18.0152459962        9.7852116572        7.4344190534
  H        18.8860488160       10.9910853252        8.9569434755
  H        19.4685753046       11.5631971084        7.4890681144
  C        16.8412647315       10.6998930197        7.0792020258
  H        17.5494365941        9.0536283742        8.1312610624
  H        18.3455235142        9.2428278274        6.5932503756
  C        17.2387840505       12.0838439753        6.3714775267
  C        16.4049000889       11.4611245351        8.3577111919
  C        15.6276547903        9.9925000974        6.4192778314
  C        16.9750915353       13.1450315644        7.2064006191
  C        17.8773114869       12.5250034043        5.2065702521
  C        16.4315205383       12.7633631565        8.4385395982
  C        15.8551279851       10.7659568917        9.4477432033
  H        16.0586644675        9.5769071945        5.5343383624
  H        15.2446958882        9.0826850406        6.9331002909
  C        14.4430110921       11.0581829607        6.0204747253
  S        17.1305573762       14.6584871682        6.4458282011
  C        17.8409712220       13.8868685926        5.0999192993
  H        18.0941202784       11.6931771599        4.4873020484
  C        15.9260059139       13.4340836442        9.5317924761
  H        15.8533206711        9.6679847459        9.5289835505
  C        15.3771352422       11.3638056507       10.5283779927
  H        14.7930437463       12.0635154382        5.7060333513
  H        13.7594439340       11.3379734567        6.8254887148
  C        13.5177453422       10.6254202656        4.8681997348
  C        18.1240700277       14.6200312611        3.8768454724
  C        15.4331822992       12.7616390876       10.6665947981
  H        16.0010718012       14.4783425389        9.5242048712
  C        14.9011550275       11.0028852333       11.7793742466
  H        12.6116294384       11.2123604520        5.0032069741
  H        13.3356696856        9.4900103518        5.0440405730
  C        14.1747299123       10.5383285565        3.4738798287
  C        18.0143515625       16.0545338293        3.6008403536
  C        18.3857229513       13.8628828079        2.6001928356
  C        15.0341781318       13.4644686075       11.8379621764
  C        14.6747262941       12.1388469512       12.5463864167
  S        14.7063156536        9.5379281815       12.6069628904
  H        14.9176806703        9.7735215694        3.5171772281
  H        14.7464380957       11.4101775931        3.2613149070
  C        13.0826395873       10.2555485873        2.4870341893
  N        17.5635755837       16.9702264393        4.5499116369
  C        18.3058346263       16.6717341845        2.3552459390
  C        18.5195844496       14.4551954641        1.3492859576
  H        18.5643263734       12.7365463134        2.6275019097
  C        13.8882617522       14.3306946827       11.5691895954
  C        16.1587221067       14.1150691746       12.6097081523
  C        14.1366356024       11.7689450421       13.8268259698
  C        14.2876764487       10.4063037728       14.0764622262
  H        12.4685182493        9.4367264171        2.7747758576
  H        12.4061440351       11.0943775382        2.5085306271
  C        13.5870139591       10.1109956884        1.0988924778
  S        17.7234037866       18.4989374054        3.9107690908
  N        18.2987419665       18.0846085692        2.4388325359
  C        18.5691674253       15.9678976521        1.1743317876
  H        18.6911277500       13.8833794985        0.5121242345
  H        14.1145633996       15.1663383648       10.8955675582
  H        13.5745317062       14.8598949375       12.4650022674
  C        12.6846475107       13.5031352166       10.9695193411
  H        16.5679220351       14.8641966756       11.8868380978
  H        15.6748390982       14.6673857687       13.4347425992
  C        17.4268790269       13.3106899276       13.1117145539
  H        13.8455732825       12.5502739017       14.5429404621
  C        13.8605171014        9.6292712486       15.2863294433
  H        14.3893590155        9.3650811117        0.9167954586
  H        13.9730402305       11.1018416460        0.8297810055
  C        12.5900874568        9.6582720756        0.0777407047
  C        18.8324777678       16.6626296036       -0.0339284988
  H        12.9591932199       13.1122513772       10.0004116351
  H        12.3187153036       12.7521842208       11.6423216798
  C        11.3833887122       14.3323709937       10.8154562100
  H        17.8992859973       12.9440381685       12.2183212633
  H        17.1189426243       12.3694267973       13.5437873977
  C        18.3690510950       14.0191684085       14.0074811298
  C        13.8087618889        8.2120310439       15.3932519333
  C        13.7270259870       10.4298462348       16.5388307866
  H        11.9710703718        8.7979935436        0.5045266202
  H        11.8682377493       10.4469156138        0.0415532002
  C        12.9399548169        9.3447987524       -1.3339443851
  H        18.7458845017       17.7042114158        0.0991625567
  C        19.1585992215       16.2442448377       -1.3193161748
  H        11.5376268356       15.1529793922       10.0396632465
  H        11.1705092086       14.9355838511       11.6381837233
  C        10.2630175649       13.3850891554       10.3594180800
  H        18.6260876723       14.9082469930       13.4773685943
  H        17.9166724841       14.3343117794       14.9411434573
  C        19.6703446515       13.3075957180       14.1784387190
  N        13.9790510270        7.3130095090       14.3534759353
  C        13.5360806088        7.6107631386       16.5649835194
  C        13.5785131397        9.7088024069       17.7479452904
  H        13.8561085706       11.5290707041       16.5329669931
  H        13.5759086386       10.1594203195       -1.5701692140
  H        12.0466506867        9.3917948592       -2.0477195702
  H        13.3841588344        8.3888544871       -1.3137867827
  S        19.3669020073       14.6476387342       -1.9428665439
  C        19.1976171384       17.2939955578       -2.3677352735
  H        10.6877264190       12.8045025758        9.5409985257
  H        10.0407620233       12.6362250059       11.1457729074
  C         9.0791294477       14.0632508053        9.8732457707
  H        19.7614565091       12.5233285735       13.4195695334
  H        19.6231826693       12.8017059946       15.0725135833
  C        20.8270557018       14.2472264580       14.1281048398
  S        13.8966277438        5.8262141015       14.9370188478
  N        13.3955593510        6.2398199865       16.4471016707
  C        13.3200698656        8.2573753404       17.8075469867
  H        13.4839221330       10.2978191520       18.6584393392
  C        19.5522543471       15.3603142656       -3.4989540431
  N        19.6140723856       16.7609411284       -3.5141135019
  O        19.1020511056       18.5197710161       -2.0590854424
  H         8.8405318159       14.8409985507       10.6095570763
  H         9.3283730231       14.5077324656        8.9446299738
  C         7.9070106997       13.1517405691        9.6698857444
  H        21.5408403569       13.4199461715       14.2653101079
  H        20.9412454034       14.5566234193       13.0049907051
  C        20.8221256182       15.4264127730       15.1322462905
  C        12.9124340188        7.4987013939       18.9400089374
  S        20.0677355783       14.5071271490       -4.9179941965
  C        19.7329804137       17.5814898378       -4.7567389468
  H         8.3230659777       12.3966346005        8.9447582207
  H         7.6881186280       12.7694985509       10.6988848128
  C         6.6703421414       13.7998086940        9.0578656763
  H        21.2060587568       14.8387115386       16.0259095725
  H        19.7807155918       15.6353706878       15.3603204525
  C        21.7683871564       16.6660472729       14.9350275724
  H        12.8792364076        6.4369148288       18.7754082759
  C        12.4022911186        7.9559267693       20.1179792984
  H        20.3796554042       17.0456008304       -5.4816681782
  H        20.1369867931       18.5815372678       -4.4501665773
  C        18.3692528036       17.8295012036       -5.4583098711
  H         6.5232664647       13.3138186490        8.0840198565
  H         6.8999511751       14.7264324075        8.7094262201
  C         5.4606644386       13.8481131635        9.9007045095
  H        21.5222112937       17.4624945605       15.6857945661
  H        22.8374248036       16.4205301637       15.1137235186
  C        21.7115773941       17.2405050220       13.5123189136
  S        12.0306778775        9.5634781255       20.6937085335
  C        12.2559097811        6.9385749108       21.1158789901
  H        17.6902223346       18.2595996314       -4.7095657697
  H        17.9225777411       16.9970558260       -5.9289503710
  H        18.4208472169       18.6445494893       -6.1257969445
  H         5.7097508289       14.2195125974       10.8926269099
  H         4.6460610959       14.3963882492        9.5470116345
  H         5.1521907538       12.8260800850       10.1143105407
  H        20.6743126935       17.1570550816       13.0653970089
  H        21.9425033688       18.2966465821       13.3667793352
  H        22.3593462061       16.6272417732       12.8862852609
  C        11.6453434461        8.7428671692       22.1534582439
  N        11.6950369219        7.4325975187       22.1843185783
  O        12.4336657494        5.7481156217       20.8805596882
  S        11.1697756200        9.5859365012       23.5777545821
  C        11.4629066643        6.6061720793       23.4139304447
  H        11.0381599003        5.6581394864       22.9842249397
  H        10.5601422308        6.8781262711       24.0285794987
  C        12.6689466059        6.4779333021       24.3179012888
  H        13.6364810223        6.6342391662       23.8101507018
  H        12.7022368169        5.5376066199       24.8570026928
  H        12.7257085716        7.1523874612       25.1374897363
