352
 i =    47000, time =    47000.000, E =        24.5605318547
  H        10.1288209344        7.7875482169       32.6725100032
  C        10.5750829099        6.8068343976       32.4826419976
  H        11.6365494729        6.9457247857       32.2317167875
  C         9.7505108225        6.5479519369       31.2268158931
  C        10.4160106511        5.9064498623       33.7556353138
  C        10.5103971316        5.7815927473       30.1726680163
  H         8.8684753476        5.9967380898       31.5217767825
  H         9.2871612651        7.4937211549       30.9485043714
  H        10.5754051512        4.7982529012       33.5914432630
  H        11.0805022167        6.2087455038       34.5183813123
  H         9.4846600543        6.1567315396       34.1626434763
  C         9.5937798763        5.4091657471       29.0145650851
  H        10.8282630254        4.8505805045       30.6433864848
  H        11.3852750863        6.4263457924       29.9556619429
  C        10.2540779174        5.8355403592       27.7272349859
  H         9.4954365054        4.2889519992       29.0642087005
  H         8.6037708977        5.7652774302       29.2164370754
  C         9.3931211590        5.2855081614       26.4991911434
  H        11.1918699251        5.4440365021       27.5308062175
  H        10.4220938369        6.9299141215       27.7636267971
  C         8.0953500720        5.9849013880       26.0738336257
  H         9.9645147587        5.1696803269       25.6022415545
  H         8.9883953713        4.3191510927       26.7620705237
  C         7.1095296782        5.1758255356       25.2526955076
  H         7.6494777715        6.2487962609       26.9880909864
  H         8.2553899188        6.9216881575       25.5211765413
  C         6.7725887964        3.8263608801       26.0133452364
  C         7.6120852044        4.3589483299       24.1276552728
  C         5.7986310875        5.9888236009       24.9912251127
  C         6.9260807433        2.7079725798       25.2471940532
  C         6.2845558890        3.5720413415       27.2596013040
  C         7.4967075082        3.0278399966       24.0289960528
  C         8.1957599599        4.9697395412       23.0365875704
  H         6.0928566742        6.7309661617       24.2884906940
  H         5.4780402857        6.5025940176       25.9500211172
  C         4.6403450588        5.0626602037       24.4794760992
  S         6.5078525399        1.2304685098       25.9861398618
  C         6.1471522888        2.1860097027       27.4482352525
  H         6.2110571604        4.3883703121       27.9975970402
  C         8.0120568338        2.3548622224       22.9235471198
  H         8.0668182254        6.0069234905       23.0241338014
  C         8.6718916183        4.3155734455       21.9072415548
  H         5.0050050821        4.6258039805       23.5569516710
  H         4.5285717651        4.1741095764       25.0892393467
  C         3.3566380244        5.8983877694       24.2813074124
  C         5.8165588418        1.5911733418       28.7457214400
  C         8.6110667354        2.9917824710       21.8659280106
  H         7.8311485410        1.2627671823       22.9881332849
  C         9.0090328976        4.6612927874       20.6686892594
  H         2.5924730090        5.3997340353       23.7089245696
  H         3.5177620366        6.7758663380       23.7271230383
  C         2.6427224087        6.2380202816       25.6292978514
  C         5.8340439617        0.2575173610       29.1814223577
  C         5.4033697343        2.4702704049       29.8493759103
  C         8.9400167766        2.2447560067       20.6543158477
  C         9.1976489205        3.5616348068       19.8482516619
  S         9.0149847313        6.1869810760       19.8197455750
  H         1.9843562217        7.0918521171       25.5130602415
  H         3.3629064376        6.5293993391       26.3954414826
  C         1.8295230671        5.0923978738       26.0559529088
  N         6.0247508879       -0.7864188497       28.2855051314
  C         5.4539371850       -0.2928657986       30.4316328395
  C         5.0062312455        2.0164304183       31.0916617895
  H         5.5371807279        3.5612012599       29.7813923687
  C         7.8067371715        1.4206968536       19.9545431583
  C        10.1933401945        1.4072344072       20.9363772565
  C         9.5905348945        3.9716804882       18.5589992415
  C         9.5092877530        5.3223324082       18.3718237336
  H         1.1719405437        4.7264144565       25.3363031575
  H         2.4428674551        4.2716173754       26.3134084483
  C         1.0747155301        5.5006994521       27.2641498534
  S         5.8621072048       -2.2906638682       28.9484493694
  N         5.4075955252       -1.7324229583       30.4676562579
  C         5.0968678866        0.5618913783       31.5076258443
  H         4.6436536302        2.7381200403       31.7995236172
  H         7.5994347590        0.5823674290       20.5947171743
  H         8.2069404344        1.0073439733       19.0201246241
  C         6.5051109654        2.1229599526       19.5315876421
  H        10.4305400121        0.9348420047       19.9735169518
  H         9.8256268489        0.6613345165       21.5850686145
  C        11.3938832860        2.3402242299       21.4044011431
  H         9.8468879795        3.1871024250       17.8124715122
  C         9.7458942380        6.0461428124       17.0742872546
  H         0.0887656886        4.9311618664       27.2939464951
  H         0.6595728893        6.4960614844       27.0601247233
  C         1.8184835726        5.5061812132       28.5968124669
  C         4.8238287141       -0.0446847642       32.7517375768
  H         6.7397784769        3.0080256636       18.9248816166
  H         6.0002374946        2.4978243828       20.4359332578
  C         5.4933092609        1.2505390716       18.8088559419
  H        11.4388117384        2.2284050896       22.4535805481
  H        11.2280897469        3.3552525511       21.1058635728
  C        12.6513380946        1.8286587320       20.7091506069
  C         9.8991420041        7.3768192850       16.8706815851
  C         9.9587176807        5.2336840723       15.8405809542
  H         2.4682466868        4.6491539262       28.5317481709
  H         2.3354032663        6.4830665428       28.6397022788
  C         0.8707486077        5.4624418692       29.8371948025
  H         4.8761233407       -1.1270951773       32.7648861672
  C         4.6804319713        0.5013407031       34.0025929207
  H         5.0825451486        0.5002628844       19.4474596987
  H         6.0178818057        0.6752365259       18.0305922135
  C         4.4597654880        1.9615905444       18.0024216324
  H        13.0040969649        0.8716885877       21.1895611606
  H        12.4777622483        1.7142948221       19.6105085095
  C        13.7301324713        2.9372192299       20.9556655246
  N         9.6707469596        8.3729417904       17.8318305438
  C        10.4480451760        7.9282615016       15.7151381674
  C        10.3745495581        5.8403230193       14.6192144946
  H         9.8251092164        4.1773212668       15.8581255208
  H         0.5127836035        4.5042805139       29.9034169875
  H         1.5308988597        5.6939735663       30.6661330487
  H         0.0508767334        6.1733413035       29.7440300383
  S         4.3594441490        2.2161974808       34.4106871049
  C         4.5786762752       -0.3895180666       35.1775490978
  H         4.4199560190        2.9504462980       18.3857651174
  H         4.7971042366        2.1242463851       17.0129194350
  C         3.1651953906        1.1524806294       17.8818131476
  H        13.2991123974        3.8743134992       20.6326430576
  H        14.6349440243        2.8215942251       20.2626275495
  C        14.3307926916        3.0494570635       22.3749584692
  S        10.1311389403        9.9094952281       17.2380084073
  N        10.6076337281        9.3283214850       15.8207752602
  C        10.6534542200        7.2526541612       14.5364606473
  H        10.4166652864        5.1923966057       13.7068882389
  C         4.2412069417        1.6588936455       36.0793822988
  N         4.2447994995        0.3011783743       36.2588196485
  O         4.6534717527       -1.5803699899       35.1290558019
  H         2.3011665458        1.7843141343       17.4571158561
  H         2.9431291747        0.9558878954       18.9738771309
  C         3.3393968544       -0.1507684405       17.1903442475
  H        14.9528854169        3.9186714588       22.4028382302
  H        13.5506098067        3.3215936782       23.0708007185
  C        15.1823701032        1.7791842215       22.7162788638
  C        10.9424523564        7.9911800474       13.3426252992
  S         3.7406691902        2.6988063385       37.4325742916
  C         4.3350071050       -0.3593876031       37.6047443267
  H         3.4205944323       -0.0341617972       16.1118944567
  H         4.1737835241       -0.6740252111       17.5822978650
  C         2.1270441145       -1.0096345368       17.0968421975
  H        15.5680557380        1.4401274867       21.7400880861
  H        14.5674808926        0.9171805676       23.0095033780
  C        16.4078721796        2.0063281499       23.6170407644
  H        10.9058391804        9.0754028037       13.4433473263
  C        11.4385249636        7.6391694310       12.1137760836
  H         3.9094388900        0.2365354305       38.4082068245
  H         3.9717944812       -1.3784231036       37.7161969218
  C         5.8497286937       -0.5435394659       37.9518506963
  H         2.3639642622       -1.8515330972       16.4153224167
  H         1.4374849433       -0.3166710114       16.5926978929
  C         1.5576274153       -1.6332055954       18.3467323281
  H        16.2242465831        2.9061705925       24.1673035933
  H        16.5233547614        1.0719070538       24.2395433805
  C        17.6702768279        2.1270064511       22.7924391552
  S        11.8416724745        6.0289993916       11.7520923721
  C        11.5686079179        8.6304859432       11.0464453874
  H         6.0845274837       -0.4160250946       39.0617858008
  H         6.2108228856       -1.5114781528       37.7619309418
  H         6.5042368395        0.2435816996       37.5028832051
  H         0.9282776711       -0.8992958681       18.9585681022
  H         2.4118478881       -2.0144640347       18.9416800214
  H         0.9821709650       -2.4933863603       18.2219022076
  H        17.8258296670        1.1206250009       22.3177222067
  H        18.5880127313        2.3210514393       23.3658391980
  H        17.6693756417        2.8262656976       21.9440214917
  C        12.1714589252        6.6644209614       10.1740133117
  N        12.0579334439        7.9830597934        9.9931681619
  O        11.4191797780        9.8477266285       11.1710568810
  S        12.9757267814        5.6701535527        8.8819488070
  C        12.3216920681        8.6220960504        8.6512771358
  H        12.5452893905        9.6335860412        8.8448427549
  H        13.2481916825        8.2707232145        8.2005646578
  C        11.1175351169        8.4436759962        7.7228344424
  H        10.7061539975        9.3939381004        7.5079360507
  H        11.3755338921        7.9481590068        6.8106673996
  H        10.2978546943        8.0063883058        8.3364207688
  H        20.8745156766       11.4238621710        3.9314311072
  C        21.5039112223       10.5195870401        4.0701216812
  H        20.9322810518        9.6415512832        4.1624236026
  C        22.3863828159       10.6310835733        5.3784474979
  C        22.3283964028       10.2045483843        2.8892531914
  C        21.4497861764       10.8907721178        6.5001248632
  H        23.0184703517        9.7562433056        5.5988642596
  H        23.1150754716       11.4427985908        5.4505863403
  H        21.6855086319        9.9451209249        2.0980206427
  H        23.0434266433        9.4293297657        3.1302332445
  H        22.8173004405       11.1393383061        2.7109414448
  C        20.6686257347        9.6530326688        7.0716796969
  H        22.0341847542       11.2349973373        7.3398568752
  H        20.7486913677       11.6532310485        6.3701644614
  C        19.8569825363        9.9530859953        8.3328189417
  H        21.4242298842        8.9200205159        7.3672624481
  H        20.1735961803        9.2011974227        6.1816674843
  C        18.6004954411       10.7321410489        7.9243721753
  H        20.4444760783       10.4286941320        9.0694571900
  H        19.5838047258        9.0328429238        8.8741525463
  C        17.5162198767       10.0167133681        7.2134144137
  H        18.3064027791       11.0600610613        8.9523611170
  H        18.8536840793       11.5497795413        7.2592562964
  C        16.2496132989       10.8600359282        6.9069119240
  H        17.3018954718        9.3037965346        7.9501046441
  H        17.7801728234        9.4507457766        6.2819598226
  C        16.7303962670       12.1749397486        6.2599025168
  C        15.8517183098       11.5804346409        8.1043776636
  C        15.1606526559       10.1386873201        6.1250679993
  C        16.5386349982       13.3038143245        7.0235353907
  C        17.1764269952       12.5158765535        5.0131174240
  C        15.9963154488       12.9337008846        8.2579449382
  C        15.4678229482       10.9030813216        9.2614754744
  H        15.5000148826        9.8423880023        5.1044818551
  H        14.9635716494        9.2291460114        6.6854960126
  C        13.8119998188       10.8208431606        6.0715770857
  S        16.8884650340       14.8067650228        6.2823291566
  C        17.4249379350       13.8964568874        4.9014791220
  H        17.3931450400       11.6950648958        4.3128758253
  C        15.8698350681       13.4942963413        9.5079400137
  H        15.3314361613        9.8716314877        9.1389162613
  C        15.2030101308       11.4483819904       10.4808319329
  H        14.0087995952       11.9323677439        5.9505430459
  H        13.3095747753       10.6369661316        7.0462309364
  C        12.9048119903       10.1669742839        4.9645033421
  C        17.9444712074       14.6223026387        3.7202976189
  C        15.4002828215       12.7637489581       10.6197602633
  H        16.1536414783       14.5263358021        9.5234551116
  C        14.9089287895       10.9729283215       11.7300930195
  H        11.8959460648       10.2840527224        5.3388600723
  H        13.1476915411        9.1225110986        4.9597737419
  C        13.2386215078       10.6998059876        3.5526588767
  C        17.8129045217       15.9949345928        3.3883813872
  C        18.5971220224       13.7508198369        2.6854956726
  C        15.0106842546       13.4096192655       11.8343592777
  C        14.8177050417       12.0676577557       12.5277130358
  S        14.4893657401        9.4849952276       12.4566806463
  H        14.3206421322       10.6378801473        3.2699482231
  H        13.0756471691       11.8021495945        3.4224873571
  C        12.5091369855        9.9338513018        2.4426318489
  N        17.2760624433       16.9524191127        4.2042966571
  C        18.1682206309       16.5353114639        2.1521120277
  C        18.9356710454       14.3047347593        1.4344443826
  H        18.7739319870       12.6961152449        2.8099445313
  C        13.6430365420       14.1165557701       11.6557708345
  C        16.0875962613       14.2150092274       12.5277123904
  C        14.4484230048       11.6826024897       13.7825224247
  C        14.3150188037       10.3477139527       13.9340070262
  H        11.5274160810        9.4551356310        2.7921874542
  H        12.0684136465       10.7364217238        1.9065474501
  C        13.3465260824        9.1585256459        1.4872142283
  S        17.2697231096       18.3898842235        3.4120539888
  N        18.0333314438       17.9194043479        2.0461030876
  C        18.6888478169       15.7479740233        1.1367675506
  H        19.3938983820       13.6793044239        0.6946239047
  H        13.6966118519       14.7984030640       10.7911091325
  H        13.5356963564       14.7574010385       12.4927581483
  C        12.4442419836       13.1999689952       11.4037838922
  H        16.4722765698       15.0890956889       11.9655581242
  H        15.6329948390       14.6365003400       13.4662400266
  C        17.3462507963       13.4132871725       13.0573303558
  H        14.3534734606       12.4565001014       14.5427114344
  C        13.9328549734        9.6562455718       15.2002334761
  H        12.6710156668        8.5004981960        0.9782541360
  H        13.9126813336        8.4857107207        2.1300610248
  C        13.8876172495       10.0114447150        0.4015149140
  C        18.9232680314       16.3569960010       -0.1549824694
  H        12.5982450143       12.5286918815       10.5170815949
  H        12.2025391987       12.5248216686       12.3330841814
  C        11.2341502474       14.0556401207       10.9448153683
  H        17.7500683024       13.0603778149       12.1744223108
  H        17.1689218726       12.6092644095       13.7797047563
  C        18.4668432113       14.3616011334       13.5892193525
  C        13.7754539748        8.2767149224       15.4516455296
  C        13.7398556217       10.5229435998       16.3914735482
  H        14.2388974982       10.9025455863        0.8276380001
  H        14.8137701530        9.6795832471        0.0351560820
  C        12.8945823858       10.3210195079       -0.7352509713
  H        18.9537473500       17.4469478136       -0.1334056684
  C        19.2485553774       15.8228154607       -1.4023358356
  H        11.4639701750       14.5556347419        9.9920629399
  H        10.9357806050       14.8672467270       11.5560125395
  C         9.9960472437       13.1654564046       10.8061006548
  H        18.6949490988       15.0642405672       12.7645218348
  H        18.2331381946       14.9451500718       14.4488650960
  C        19.6702558176       13.4211625216       13.8875512112
  N        13.9396483815        7.3262385982       14.4746372803
  C        13.5176150450        7.7579257930       16.7196236064
  C        13.4666736479        9.9634362767       17.6318381955
  H        13.6273188803       11.6137120384       16.2919185438
  H        13.0122130368       11.3809137068       -1.1311663795
  H        11.9178540017       10.1836585331       -0.3560485394
  H        12.9886969672        9.6221731075       -1.5622822400
  S        19.6007105384       14.2054060339       -1.8307018687
  C        19.3662546510       16.8177271694       -2.5287271434
  H        10.3316957646       12.2637499674       10.4278239105
  H         9.6418470571       12.9532178049       11.8021377022
  C         8.9325024048       13.8706047805        9.9367745563
  H        19.6243095203       12.6277634130       13.0936256165
  H        19.3874236148       13.0104001798       14.8378776954
  C        21.0270813454       14.1346430912       13.9667825659
  S        13.9594526245        5.8701891768       15.2096424755
  N        13.5612496852        6.3321469886       16.7308139644
  C        13.2942324695        8.5301731630       17.8495280619
  H        13.3448170581       10.6983880293       18.4725086798
  C        19.8654514297       14.8226003023       -3.4807627111
  N        19.8371088145       16.1632507028       -3.6177822638
  O        19.1790443954       18.0400062670       -2.4187220716
  H         8.6283383647       14.7789164400       10.5779892702
  H         9.4446513350       14.3144778646        9.0391088847
  C         7.7651747662       12.8444387039        9.8103656729
  H        21.9045701367       13.3949791326       14.1274656982
  H        21.1678261219       14.6691680986       13.0085261163
  C        21.0849067314       15.2794601678       14.9994833184
  C        13.0129927498        7.8255662544       19.0846567161
  S        20.0862418071       13.7397568770       -4.8583772798
  C        19.8519315640       16.8133584607       -4.9129728904
  H         8.2273683941       11.8759253020        9.5341048705
  H         7.4714900339       12.7230868668       10.8568359782
  C         6.6511159265       13.2850863208        8.8934965245
  H        21.9454923392       15.1851046876       15.6631851051
  H        20.1433072068       15.4375994690       15.4833563784
  C        21.3556777905       16.6576626562       14.2628465074
  H        13.5187463138        6.8257116310       19.1906529114
  C        12.3329236728        8.1959298458       20.1939841922
  H        20.5973699259       16.3337402646       -5.5602470969
  H        20.2060004126       17.8395797476       -4.8656762302
  C        18.4603324451       16.5947824477       -5.5727686775
  H         6.4318689745       12.5526401890        8.1146626677
  H         6.8766653847       14.2310674731        8.3600915135
  C         5.4076226200       13.4981895312        9.6837830525
  H        22.0584678725       16.6137950964       13.3917733587
  H        20.4042139076       16.9498244136       13.8993573448
  C        21.6321625739       17.6822985194       15.3000324376
  S        11.5333073717        9.6931572642       20.4795134064
  C        12.0932036663        7.0973431411       21.2142709995
  H        18.1816378155       15.6322078861       -5.9664717133
  H        18.3931154094       17.2215266423       -6.3764180135
  H        17.6057533188       16.6735523350       -4.8342674328
  H         5.1588212643       12.5749071141       10.2634430282
  H         5.5341947489       14.1393742037       10.5351848658
  H         4.4942861017       13.9644166134        9.1573119794
  H        21.1472893077       17.3895671436       16.2581233889
  H        22.7016287304       17.6702099303       15.6274187885
  H        21.3980876585       18.7053132986       14.9648475086
  C        11.0823129510        8.9716803439       22.0476501288
  N        11.4103504322        7.6749486994       22.2333702396
  O        12.3064748824        5.9208613914       21.1003153326
  S        10.2041342127        9.7917793706       23.3417564007
  C        11.1250636523        6.9300057963       23.4512182782
  H        10.9802339278        5.8447458505       23.2183527181
  H        10.2555079017        7.1842975316       24.0380412038
  C        12.3541967889        6.9661523992       24.4393169742
  H        12.6824102480        5.8891864590       24.5563690399
  H        11.9947686658        7.2947321152       25.4356552550
  H        13.1058372419        7.5048335899       23.9647457907
