352
 i =    96900, time =    96900.000, E =        24.9710204051
  H        10.3421707783        5.2251111321       31.3984116740
  C        10.5022305230        6.2791984735       31.8816541443
  H         9.4819646434        6.7516529797       31.9610261032
  C        11.4414126912        7.0324389063       30.9486807098
  C        11.0161653779        6.1720361897       33.3187004037
  C        11.7817925704        6.4237998454       29.6623410960
  H        10.9997143860        7.9627597290       30.5834303701
  H        12.3308987268        7.3875970752       31.4576839498
  H        10.9091789421        7.0659643353       33.9019162605
  H        10.4053162564        5.4682523953       33.9505568566
  H        12.0877468735        5.9526704193       33.5148437064
  C        10.5304433376        6.2082447151       28.7659194031
  H        12.3439993380        5.4930508830       29.7756373880
  H        12.4824522673        7.0080759077       29.0462274518
  C        10.7765943879        5.7464788350       27.3870424378
  H         9.9477205735        5.3575997273       29.2858352365
  H         9.8693597675        7.0433281139       28.8531703206
  C         9.6687060442        5.0188204065       26.5657375001
  H        11.6629596755        5.1300068979       27.4631473941
  H        11.0122313087        6.5970506126       26.7524831154
  C         8.4993648154        5.9205953746       26.1518515991
  H        10.1476931985        4.8388261595       25.6000169791
  H         9.3741759389        4.0993822331       27.0163969300
  C         7.4311322677        5.0920565168       25.4306387597
  H         8.2927620732        6.3674088017       27.1186523233
  H         8.9322019091        6.7412049702       25.5975843159
  C         6.9785663399        3.8229535048       26.1159315844
  C         7.8264946533        4.3086884108       24.2169443852
  C         6.2383145173        5.9737461807       24.9679515455
  C         7.1396100277        2.6754282643       25.2848331185
  C         6.4547132225        3.5564945865       27.4027348496
  C         7.7585767480        3.0116095782       24.0861679333
  C         8.3414823205        4.9989527972       23.1520642494
  H         5.7861242407        5.5269195528       24.1561877068
  H         6.6283261118        6.9638680119       24.5904469702
  C         5.1585832285        6.1977428486       26.0238200317
  S         6.6128548070        1.2519693206       26.0240024452
  C         6.2332020063        2.2023417604       27.4772527345
  H         6.3366358276        4.3557058345       28.2123165365
  C         8.1217885279        2.4217900965       22.9053517205
  H         8.4596207514        6.0946965444       23.1822215241
  C         8.7577397510        4.4462906545       21.9718491200
  H         5.5680882479        6.0448442393       26.9840995203
  H         5.0056892443        7.3039517238       25.9733425496
  C         3.8246531878        5.5368714992       25.7805959154
  C         5.7438599929        1.5417326715       28.7723604040
  C         8.7021358047        3.0747038096       21.8428671753
  H         8.0504941250        1.3870780613       22.9564877125
  C         9.2628237214        4.8059526716       20.7552499754
  H         3.9873542570        4.4503158073       25.8137318222
  H         3.4910574858        5.8336904447       24.7863535088
  C         2.8027098309        5.9638356543       26.8744469913
  C         5.7182519701        0.1283381959       29.0291222012
  C         5.2826050071        2.4475406231       29.8476184732
  C         9.0912965892        2.3526535157       20.5574118721
  C         9.4546636175        3.7032917733       19.8938839115
  S         9.5585374656        6.2824985749       19.9683869639
  H         1.9000000458        6.2451957608       26.4293736348
  H         3.2374016547        6.7910890097       27.4047628621
  C         2.6305389851        4.8886266010       27.9096228002
  N         6.0347121605       -0.9276366548       28.1467495310
  C         5.5764860197       -0.3622143322       30.3391401465
  C         5.0585353556        1.8892239459       31.1105660085
  H         5.0633599856        3.4571374060       29.6552584105
  C         8.0399995130        1.5159879344       19.7948655318
  C        10.4487229517        1.5147122828       20.8400301251
  C         9.7795647291        4.1229985932       18.5961143230
  C         9.8961050535        5.5014562758       18.4048116740
  H         2.1666884915        4.0393484271       27.4506810371
  H         3.5647575168        4.6413970325       28.3755920566
  C         1.6178557069        5.3455185553       28.9319866808
  S         6.1776664488       -2.3550596763       28.9892539864
  N         5.8193359536       -1.7371023379       30.4690149854
  C         5.2714117155        0.4373266088       31.4706498284
  H         4.6857544757        2.5376875944       31.9097299454
  H         7.9008280720        0.6734467819       20.4284183548
  H         8.3266682824        1.2550934102       18.7978351878
  C         6.6822291486        2.2311029233       19.5175551041
  H        10.7476148282        0.9903614728       19.8757309926
  H        10.2718192571        0.7945189319       21.6418366831
  C        11.6542794774        2.3795602509       21.0298710474
  H         9.8454493338        3.3607070533       17.7931191863
  C        10.1922515921        6.2392774486       17.0733836906
  H         0.9904578692        4.5146751364       29.2975784291
  H         0.9319774516        6.0628374271       28.5206257438
  C         2.3842480036        6.0983161930       29.9706771289
  C         5.0247237069       -0.2056442810       32.7266846287
  H         6.8801050756        3.1417628702       18.8936566941
  H         6.2371188779        2.6920392066       20.3307086313
  C         5.7681396311        1.2841225277       18.7109917639
  H        11.4472666413        3.2448117536       21.6025634419
  H        11.8626345179        2.8465075420       20.0482657570
  C        12.8435205777        1.6354742497       21.7072359669
  C        10.1842799653        7.6189877018       16.9652842706
  C        10.3453389224        5.4308039789       15.7941875246
  H         3.3035402821        6.5404485334       29.5907161277
  H         1.7605520992        6.8356636383       30.3900974507
  C         2.6917920795        5.2257929392       31.2341344615
  H         5.2093632237       -1.2245282505       32.8591931361
  C         4.6804903666        0.4242406571       33.9391146276
  H         5.6268702949        0.3611455374       19.1710220988
  H         6.2485875455        1.0708317176       17.7899167711
  C         4.4453584834        2.0193701705       18.3883341181
  H        13.0746443942        2.1659135447       22.6399768523
  H        12.4480446665        0.6324004613       22.0075660814
  C        14.0590063631        1.4798288016       20.7902079249
  N         9.9924661647        8.5684818297       17.9948081644
  C        10.4812417425        8.3054130623       15.8189926009
  C        10.6092485836        6.1313208299       14.6270887790
  H        10.1799281884        4.4267207573       15.8789655782
  H         1.7698215938        4.6737905051       31.4068458830
  H         3.4656809316        4.5180313829       30.9106259249
  H         3.0064847488        5.7797693770       32.0870972612
  S         4.5837210055        2.0663434929       34.4393071547
  C         4.5852867018       -0.5851292057       35.0449252168
  H         4.3586989616        2.9072809085       19.0762736574
  H         4.5593179958        2.4522365184       17.3532673729
  C         3.2049854126        1.1452458563       18.6593837543
  H        14.2553953515        2.4665686860       20.1839232071
  H        13.8783311968        0.6037498961       20.2040765585
  C        15.4105267920        1.2821582696       21.5249414038
  S        10.1210081575       10.1080097510       17.4457731992
  N        10.5989016013        9.7376200757       15.9450262605
  C        10.8717025107        7.5888557057       14.6461043606
  H        10.5815622963        5.5353642405       13.6971375618
  C         4.3014539705        1.4430711235       36.0765518054
  N         4.3471653488        0.0608089257       36.1994313577
  O         4.6633898375       -1.7701800386       34.8903859183
  H         2.2941513019        1.7743787631       18.8177125600
  H         3.3816261816        0.7902883697       19.6013391373
  C         3.0009203938        0.1238871141       17.5672297423
  H        15.2354644690        0.5734920751       22.2331371006
  H        16.0446578292        0.6753986792       20.9567703423
  C        16.0738372980        2.4911258411       22.1690665030
  C        11.1903602259        8.3172395905       13.4208191986
  S         3.9745282036        2.4295397740       37.4115471565
  C         4.1317555671       -0.5233486838       37.5029940077
  H         2.9482723330        0.6197273222       16.5535735667
  H         3.8852893375       -0.4396264971       17.3437215430
  C         1.8918314373       -0.8522841403       17.8929797964
  H        15.4079723178        3.1258810191       22.7971427847
  H        16.4091817763        3.1740255790       21.3076166827
  C        17.2329811044        1.9888206038       23.0900550198
  H        11.1151081080        9.3999715612       13.5713138164
  C        11.7421001573        8.0084556331       12.2419838478
  H         3.4445753947        0.0855543893       38.0730833954
  H         3.5935591765       -1.4296523015       37.3113566303
  C         5.4412805811       -0.7189294154       38.3213386926
  H         1.5178264772       -1.2653989088       16.9718386925
  H         0.9374362285       -0.3495302626       18.1845803624
  C         2.2454382469       -1.9950299270       18.8466307080
  H        17.1862784750        2.7417415682       23.8413544695
  H        16.8896731587        1.1698353377       23.7471906560
  C        18.5710747138        1.7855120208       22.3421141815
  S        12.1050046504        6.3754409733       11.6430196847
  C        11.8770484545        9.0600059478       11.2373298947
  H         5.3026834437       -0.7375816247       39.4334304175
  H         6.0243996840       -1.5950134859       38.0331389336
  H         6.1116313188        0.1147383538       38.0469095817
  H         2.8775516469       -1.6777278804       19.6523714476
  H         2.7330122015       -2.8299381561       18.2421145271
  H         1.2491223315       -2.3058654458       19.2484202927
  H        19.4021590311        1.4283776701       22.8276371122
  H        18.8121966073        2.7043713947       21.8594892777
  H        18.5196565793        1.2085306879       21.3834256525
  C        12.6429423492        7.1908881691       10.1897952886
  N        12.5150064806        8.5554852770       10.1827699388
  O        11.6590344099       10.2242573912       11.3977299418
  S        13.0176996688        6.3819855435        8.7375225667
  C        12.8213763431        9.4456737330        9.0639298886
  H        12.9679698502       10.4098948256        9.4866458470
  H        13.6661734258        8.9341451320        8.5836171647
  C        11.6119352798        9.3325767172        8.0455694699
  H        11.6459575282        8.5791622200        7.2471892774
  H        10.7400336152        9.0089961264        8.6275134321
  H        11.3477603899       10.2962562748        7.6304467383
  H        22.1516819534       11.1134445077        3.2450686618
  C        22.4831914776       10.0767621167        3.4525140280
  H        21.5515287235        9.4756229677        3.5308194725
  C        23.2234919183        9.9904703473        4.7914072756
  C        23.4941302232        9.7471758661        2.3599218445
  C        22.2524492710       10.3469279989        5.9203221869
  H        23.6390931455        9.0008695438        4.9063559662
  H        23.9636560913       10.8056379517        4.7383870055
  H        23.4320117541       10.4928696586        1.4851054490
  H        23.1208729582        8.7635396428        1.9389886063
  H        24.5488107872        9.6890676655        2.6929922221
  C        21.6192512739        9.0743586731        6.4688662507
  H        22.8000746757       10.9680193503        6.6554464657
  H        21.4315852534       10.9843785799        5.5091778508
  C        20.7634830883        9.2775217617        7.7609412116
  H        22.2585516307        8.2224198490        6.6863451961
  H        20.8839047611        8.8104178086        5.6824664854
  C        19.5032547843       10.1843624351        7.6032625248
  H        21.1848109800        9.7771605623        8.6607778723
  H        20.3935451672        8.3570472031        8.1411338580
  C        18.3071633024        9.6230354654        6.8645329970
  H        19.0682925882       10.3278128057        8.5896236225
  H        19.7610241653       11.1951714745        7.2465128279
  C        17.0640771562       10.6096694737        6.7705712817
  H        17.9712289769        8.7067173943        7.3368217587
  H        18.5443511245        9.3765795187        5.8467753503
  C        17.5661750315       11.9026369477        6.2036309861
  C        16.6862434513       11.2679582398        8.0478251019
  C        15.9267857113        9.9462285005        5.9972707877
  C        17.2227575582       12.9744649402        6.9357181853
  C        18.2935078376       12.2938738959        5.0724827877
  C        16.6928904854       12.6221011816        8.1402567842
  C        16.2121001558       10.5741070747        9.1197840876
  H        16.2107369302        9.4815631922        5.0606963913
  H        15.5954086742        9.1649464927        6.6535585341
  C        14.7685319007       10.8500623010        5.7498492958
  S        17.6302677157       14.5036605593        6.2043821281
  C        18.2530992699       13.6367757719        4.8507780550
  H        18.6100536484       11.5133860150        4.4720981181
  C        16.1773118844       13.2284494294        9.2905239709
  H        16.2413365460        9.4906934586        9.2300942448
  C        15.8416350426       11.1667072973       10.2770100789
  H        15.0984116646       11.8850393514        5.5481464664
  H        14.3200636632       11.0025613813        6.7039658959
  C        13.6733913574       10.3076727530        4.8606934159
  C        18.6310319273       14.3744798578        3.5729514607
  C        15.8247864567       12.4989760260       10.4123593084
  H        16.0052576796       14.2602885045        9.2900376575
  C        15.4519174080       10.7813807656       11.4964063743
  H        12.8110855164       10.8781101822        5.1515890972
  H        13.4012779297        9.2341975938        5.0480908760
  C        13.9285666102       10.8488938423        3.4885175660
  C        18.5054691348       15.7451541131        3.3216083523
  C        19.0232833866       13.5571410822        2.3706735431
  C        15.3339064235       13.1726930027       11.6727617227
  C        15.0489223412       11.8174093891       12.3201612718
  S        15.1277698908        9.2449858228       12.1670137724
  H        15.0455055082       11.0434790891        3.3959263515
  H        13.3579993057       11.7796137648        3.3166772940
  C        13.4807268604        9.9357865872        2.4083350787
  N        18.3495004866       16.7208205626        4.3402249878
  C        18.8197476081       16.3438040435        2.0933847983
  C        19.2072527672       14.1445439026        1.1208904441
  H        19.1793423469       12.4811688162        2.4623165135
  C        14.0509194243       14.1060750112       11.4902995199
  C        16.3619849816       13.9881083703       12.5831052070
  C        14.4876550966       11.3873315046       13.5331834857
  C        14.5812923666       10.0287561949       13.6491555805
  H        13.6529001787        8.8654387259        2.6616918113
  H        12.3983020034       10.0034330958        2.3966465204
  C        13.8741888794       10.4035465229        1.0772890847
  S        18.1660733714       18.1577441506        3.5747958559
  N        18.6749288109       17.7431840162        2.0737329927
  C        19.0400732161       15.6114760431        0.8962741095
  H        19.4798052770       13.5479051429        0.2586409653
  H        14.2796710759       15.0183436870       10.9431203349
  H        13.6560306228       14.3589863983       12.4764837678
  C        12.9848128343       13.2806756220       10.7136785142
  H        16.3074577489       15.0873013659       12.5914054039
  H        16.0483676979       13.6146097057       13.5358414275
  C        17.8326700310       13.7130013651       12.2840258812
  H        14.1212214984       12.1601121264       14.2061845582
  C        14.2510263141        9.2949822218       14.9788640777
  H        14.8622879370        9.9042727076        0.8431825963
  H        14.0880323258       11.4569563275        1.0922486967
  C        12.7289640804       10.1195163166        0.0767847121
  C        19.4028340775       16.2565510899       -0.3440269264
  H        13.3922968063       13.0078637029        9.7738124686
  H        12.7190942358       12.4250393770       11.2768345775
  C        11.7026783436       14.0646301587       10.5007576956
  H        18.0317240449       14.1718272612       11.3182873800
  H        17.8980426941       12.6196670858       12.1702725222
  C        18.7847145150       14.0932571956       13.3590905001
  C        14.1428930959        7.8804617840       15.0920481842
  C        14.1206746997       10.1073800028       16.2155582955
  H        12.5308566932        9.0082141943       -0.0631992999
  H        11.8123132422       10.5793686475        0.3202836788
  C        13.1666548867       10.6700947585       -1.2685434255
  H        19.5703628526       17.3159526047       -0.2610702362
  C        19.5141756013       15.7139212483       -1.6162903468
  H        11.8871402877       14.7941419424        9.7978097138
  H        11.3496119866       14.5155776814       11.3986146361
  C        10.6606901775       13.1985119227        9.8290272549
  H        18.4701335080       15.0476808011       13.7832946968
  H        18.6834183136       13.3739537355       14.1459239930
  C        20.2440250971       14.0963863811       12.9720216267
  N        14.3626571862        6.9589754775       14.0674175226
  C        13.9627926957        7.2578557822       16.3046768867
  C        13.7852317443        9.4419145553       17.4139578931
  H        14.1158227650       11.1930373767       16.2068787453
  H        13.7097636182       11.5591242940       -1.2320403980
  H        12.2430135436       10.8177455622       -1.8217491802
  H        13.7846842656        9.9187368443       -1.7650236660
  S        19.4569593371       14.0880745768       -2.2588247110
  C        19.6856685026       16.7672522412       -2.6758731741
  H        10.2384715017       13.8780204144        9.0989599269
  H        11.1321672423       12.3708691243        9.2733838111
  C         9.6941929319       12.6532953127       10.9048388623
  H        20.3390057979       14.7491813593       12.0979484665
  H        20.6128731955       13.0854990687       12.6358348245
  C        21.1839176231       14.4848622729       14.1408392425
  S        14.2051444616        5.4726122744       14.6358817391
  N        13.9010433456        5.8622771680       16.2068483786
  C        13.6741880237        7.9900194596       17.4896338507
  H        13.8285386364        9.9997005590       18.3744229398
  C        19.8079044255       14.7668561516       -3.8874752532
  N        19.8658007297       16.1680211369       -3.8639462681
  O        19.8601754915       17.9338216766       -2.4655283121
  H         9.1676535754       11.7342528289       10.5463023516
  H        10.1691059516       12.2854985970       11.7325835687
  C         8.6813980651       13.6602178634       11.4294557788
  H        20.4704986663       14.6219110707       14.9565271330
  H        21.6732459355       13.5685130021       14.4182265132
  C        22.0790015054       15.6811600685       13.8773832511
  C        13.3808683278        7.2305576156       18.6327981224
  S        20.2578200737       13.9545971542       -5.3760176194
  C        20.1388546629       16.8935007601       -5.0928673984
  H         8.0885397044       13.2315264783       12.1807491396
  H         9.1077587102       14.6064856319       11.8705243729
  C         7.6359711748       14.1407225511       10.3319420171
  H        22.4159852040       15.7823405975       12.8341478868
  H        22.9696692605       15.5487263370       14.4430872800
  C        21.4589663776       17.0657327878       14.2026164762
  H        13.7592239882        6.2238078174       18.5877121015
  C        12.8977166826        7.6211683228       19.8430955213
  H        20.9349973892       16.4944811939       -5.8187665627
  H        20.5811611577       17.8244395646       -4.9000669369
  C        18.8206963618       17.2048241701       -5.8930408195
  H         8.2429806661       14.5253561038        9.5269254604
  H         7.0798483809       14.9802100278       10.7174450094
  C         6.6905669773       13.0336348084        9.7777564895
  H        21.5477950432       17.7815860967       13.3937214728
  H        20.3857957651       17.0720768046       14.2994045657
  C        22.1637124700       17.5872189562       15.4241981630
  S        12.3075286599        9.2076886657       20.2409293961
  C        12.6675912563        6.6341026840       20.8726013079
  H        18.9587645218       17.5067893894       -6.8974273630
  H        18.2330702598       18.0087242450       -5.3806400163
  H        18.1328635791       16.3895772515       -6.0529569858
  H         7.1994465638       12.1674100180        9.3573244278
  H         5.9824509141       12.7336238873       10.4867745283
  H         6.1532060037       13.4529276933        8.9531591357
  H        21.8099693144       17.0124558516       16.3031292822
  H        23.2732948452       17.4293999341       15.3023818354
  H        22.0045275784       18.6541195332       15.5329890139
  C        12.0979644159        8.5783141243       21.8769726925
  N        12.2169494379        7.2586413074       22.0078419695
  O        12.8450579905        5.3972350490       20.8139349247
  S        11.5475277139        9.5215470539       23.2424039825
  C        11.9427599171        6.4679163123       23.2331333733
  H        11.6240763035        5.4619290537       22.9505140218
  H        11.1681311098        6.8452144053       23.8473238145
  C        13.0688761407        6.4078633278       24.1831713366
  H        13.9252889365        6.5490145708       23.5236547995
  H        13.0655144720        5.5386529949       24.8095151757
  H        13.1119394983        7.2754730151       24.8611427622
