352
 i =    85300, time =    85300.000, E =        24.8656372257
  H        11.3145239809        7.4570374947       31.6068171162
  C        11.8852468833        6.5177075960       31.8117188659
  H        12.8402939189        6.7591924720       32.3024108502
  C        12.2209679884        5.8225920161       30.4746901586
  C        11.0463263187        5.7517280567       32.8354868439
  C        11.0272798567        5.3060291550       29.6776298681
  H        12.8888448574        6.4937370608       29.8704331318
  H        12.8637731065        4.9825315756       30.7530336266
  H        11.3480118992        6.2302674113       33.7756869196
  H         9.9703785786        5.8864813766       32.7167491111
  H        11.3747747790        4.6864060876       32.8226440433
  C        10.5394694407        6.3662516388       28.5911998172
  H        10.2227221644        4.9845274752       30.2433929323
  H        11.3103901682        4.3723487527       29.2860297455
  C        10.8425093128        5.9329397631       27.1442769574
  H         9.4843106592        6.6346102622       28.6739097601
  H        10.9843503602        7.3153731376       28.9298956677
  C         9.7691573520        5.0929219847       26.5026474000
  H        11.8024071992        5.3857813112       27.2463367701
  H        11.0023661342        6.8820370499       26.7411964746
  C         8.5366097610        5.9594808382       26.1281559203
  H        10.2731050505        4.5380108393       25.6808883958
  H         9.4721381130        4.3189908038       27.0981978457
  C         7.5190580382        5.1639508892       25.3394446311
  H         8.0169074251        6.4258633336       26.9451451260
  H         8.9507479531        6.8301663137       25.5712670061
  C         7.2098451866        3.7979994678       26.0240333524
  C         8.0917466024        4.4286671747       24.1363928499
  C         6.2372943087        5.8957624678       24.9005572745
  C         7.4112531023        2.7020648286       25.2114926244
  C         6.9376429311        3.5031665794       27.3558793874
  C         7.9952066980        3.0566528670       23.9821227423
  C         8.5341084421        5.0564501528       23.0049085752
  H         5.6049337558        5.2496048429       24.2319880613
  H         6.5659192812        6.7956155440       24.3026121405
  C         5.3454046114        6.3299913553       26.1242857370
  S         7.1170205244        1.2366138692       26.1248685989
  C         6.6821774347        2.1555323294       27.5152589210
  H         6.8164908759        4.3266356469       28.0344319049
  C         8.4792661107        2.4323373673       22.8552331406
  H         8.5834842206        6.1263456699       22.9559707799
  C         8.9554347377        4.4594081205       21.8390124608
  H         5.5163906863        5.6613660533       26.9093097638
  H         5.6930425598        7.3244125588       26.3809655898
  C         3.8498800935        6.2156197003       25.7115479587
  C         6.1921534446        1.4868150061       28.7838943205
  C         8.9425028857        3.1272194073       21.7212158287
  H         8.4865612380        1.3508163154       22.8885983486
  C         9.4694965903        4.8557875509       20.6895084247
  H         3.7027668534        5.1722088894       25.4990718106
  H         3.5966059947        6.7074145598       24.7964067302
  C         2.8203117135        6.5939957070       26.8710626928
  C         6.2351283513        0.1117186621       29.0862463293
  C         5.6848875616        2.3442848597       29.9006471726
  C         9.2723981672        2.4402227752       20.4041397578
  C         9.5637794661        3.8289692345       19.7840902264
  S         9.8112718371        6.3520771102       19.9457081194
  H         1.8811823394        6.9373502757       26.5625218925
  H         3.1812553811        7.4719537407       27.3949677964
  C         2.6219199047        5.4913415462       27.8667733894
  N         6.7800729524       -0.8962115788       28.2310883889
  C         5.8745963468       -0.3319924415       30.2990188428
  C         5.1960722211        1.8218144747       31.0725307279
  H         5.6746738206        3.4326871216       29.7866044485
  C         8.0757929002        1.7293463755       19.7373683727
  C        10.5252413754        1.4760496343       20.5225076940
  C         9.8390153694        4.2283768595       18.4901111976
  C        10.1641647263        5.5745963627       18.3952989030
  H         2.6860423671        4.5483715542       27.3199445932
  H         3.5967278864        5.5461335916       28.4743778648
  C         1.4063533309        5.5700342104       28.7799872422
  S         6.5349238721       -2.3072875700       29.0223694045
  N         6.0727331624       -1.7348448466       30.4512374440
  C         5.4375498254        0.4105766911       31.4122121268
  H         4.8177351269        2.4872788299       31.8228260484
  H         7.6611583537        1.0765431881       20.5140396162
  H         8.4310931053        1.0520293864       18.9582390718
  C         6.7937627107        2.5662341547       19.3222332739
  H        10.6001665477        1.0786598043       19.4352650063
  H        10.5155040827        0.7231272258       21.3158750103
  C        11.7707261610        2.3124232193       20.8111524692
  H         9.8107544980        3.4935804650       17.6662600539
  C        10.5476915523        6.3546759133       17.1668688348
  H         1.2296509494        4.6042848947       29.1024392260
  H         0.4039419823        5.7583881174       28.3018072479
  C         1.6336192897        6.4362561677       30.0255602363
  C         5.2200247980       -0.1951233752       32.6962074554
  H         6.9534290865        2.8918393827       18.3340433661
  H         6.7187750275        3.4847147832       19.8880444514
  C         5.5274263414        1.7451078796       19.5221184466
  H        11.6530539388        2.8587743917       21.7467475710
  H        12.0632430252        3.0381672836       20.0812013843
  C        13.0358612707        1.5266682666       21.1863495313
  C        10.5257471100        7.7427868877       16.9060335935
  C        10.9724687017        5.5164050248       15.9811199609
  H         2.1996876387        7.2600998130       29.8133330201
  H         0.6833921061        6.9212984526       30.3762580699
  C         2.0880669521        5.4898497571       31.1312387901
  H         5.3343607511       -1.2255334615       32.7377311081
  C         4.9463030016        0.3334607102       33.9013686670
  H         5.0824742632        2.1105414447       20.5068643812
  H         5.7681312934        0.6762998069       19.6916219776
  C         4.6106702475        1.9433532180       18.2745509761
  H        12.7357683404        0.9176575640       21.9655244205
  H        13.2918699938        0.8369169954       20.4580503548
  C        14.1987697381        2.4996961983       21.4852768533
  N        10.3047198449        8.6671817264       17.9387084797
  C        10.8908796638        8.3122861541       15.6476509811
  C        11.3942368855        6.1169498366       14.7657734261
  H        11.0213711501        4.4362666658       16.0050922491
  H         2.3854780299        6.1169266463       32.0199308850
  H         1.4987335513        4.5747920393       31.4178913084
  H         2.9039840691        4.9178105193       30.7149651068
  S         4.7318940031        2.0003540345       34.3166123569
  C         4.8245560119       -0.5892911039       35.0243356143
  H         4.4456661649        2.9359992580       18.0202227071
  H         5.1338825244        1.5628544771       17.3739839098
  C         3.1880165436        1.3361174652       18.4554100105
  H        13.9251898605        3.2503238669       22.2610818554
  H        14.5357570854        3.0736187754       20.6737814943
  C        15.4387727476        1.7924357539       21.9113734773
  S        10.2446141821       10.1140270993       17.2198309273
  N        10.6930314594        9.6882296804       15.7007711659
  C        11.3062824667        7.5779256162       14.5754636092
  H        11.8582968241        5.4878497715       14.0649067785
  C         4.4131387648        1.4270036994       35.9399863649
  N         4.4874355524        0.1133375353       36.0834488021
  O         4.7162698758       -1.7978868835       34.9193187522
  H         2.5335528230        1.4473041782       17.5541734699
  H         2.7668710078        2.0414658869       19.1028540590
  C         3.1853970188       -0.1744448775       18.8181644141
  H        15.1675327891        0.8689834608       22.3109599737
  H        16.1730152919        1.6304986542       21.1233374303
  C        16.1446737313        2.6416501007       23.0069049432
  C        11.6658337355        8.2985111247       13.4184448463
  S         3.9388002162        2.3457204261       37.4354534950
  C         4.1379605959       -0.7124057900       37.3014524393
  H         4.1817305916       -0.5472424936       18.5157633951
  H         3.1508552536       -0.2796523223       19.8785690758
  C         2.0081883764       -1.0740073138       18.2755293443
  H        15.4541668245        2.8924909018       23.8245157794
  H        16.4201115463        3.6070692160       22.5149445402
  C        17.3861346039        1.9640257037       23.5496338496
  H        11.4573891332        9.2984499500       13.4647691844
  C        12.0460967961        7.8453693067       12.1873171926
  H         3.6655002236       -0.2168190374       38.1421200135
  H         3.4712140776       -1.4801510283       37.0095230409
  C         5.4598624293       -1.2945791474       37.9182728087
  H         1.1153785093       -0.4839135757       18.4453378663
  H         1.9784122299       -2.0306038933       18.8163807925
  C         2.1422535614       -1.4353501868       16.7851844697
  H        17.6009778453        2.3941078096       24.5024007697
  H        17.1603246346        0.9046320874       23.7261603684
  C        18.6401499141        2.1440578014       22.7336169570
  S        12.2433281465        6.1978850800       11.7196945206
  C        12.1992744338        8.8329501708       11.1346811246
  H         6.2371937824       -1.0994958799       37.2068237649
  H         5.9160325501       -0.7841829802       38.7931910644
  H         5.4906817592       -2.3605030690       38.1561361213
  H         2.0249138594       -0.5038095609       16.2406221263
  H         1.3412597817       -2.1598245202       16.5274040529
  H         3.1472170218       -1.8685815460       16.5528358770
  H        19.5035324423        1.8935526027       23.3160466697
  H        18.8188548132        3.2202181957       22.4504668368
  H        18.7106303293        1.5330988843       21.8471217541
  C        12.5617149642        6.8383312927       10.1135477834
  N        12.7044542650        8.2143957779       10.0258629353
  O        11.8135306532       10.0236207252       11.2092094470
  S        13.3045596976        5.8660045471        8.7028926300
  C        12.9134152998        8.8902698065        8.7712268956
  H        13.2623430165        9.9143539824        8.9452286765
  H        13.6433535712        8.4801556776        8.0642502600
  C        11.6032247147        9.0982133272        7.9640404014
  H        11.5589700625       10.1682882852        7.7742371498
  H        11.7610436973        8.5249533183        7.0186476087
  H        10.6832197504        8.7225736852        8.4341906379
  H        21.6369583286        9.6223854055        3.4478885232
  C        22.6756257252        9.3767236054        3.3569129684
  H        22.8372607473        8.3464743471        3.4949753243
  C        23.4374959354        9.9438624601        4.5286875297
  C        23.1681864327        9.7971979299        2.0013290062
  C        22.4410626013       10.0792574651        5.6384301917
  H        24.2546743007        9.2458823938        4.6610682550
  H        23.8216452689       10.9259437786        4.2250123337
  H        22.3394636723        9.6826531242        1.2950290482
  H        24.0167827980        9.2246114028        1.5229645327
  H        23.4589751217       10.8635255770        1.8963902226
  C        22.0313931763        8.8138629741        6.2389191400
  H        22.8517802292       10.5974236413        6.4916523673
  H        21.6658198411       10.7426976708        5.4335255110
  C        20.8756291364        8.8803837819        7.2480804728
  H        22.8826723445        8.3618565252        6.6614914397
  H        21.7015091735        8.0364592991        5.4919602449
  C        19.5540112195        9.2597340275        6.5746260463
  H        21.1842719779        9.7233011049        7.8920048408
  H        20.8050943739        8.0369971214        7.9031784463
  C        18.3891095266        9.4194344279        7.6220750328
  H        19.7458342711       10.1034447560        5.9826549229
  H        19.1641094549        8.4583669021        5.8655717643
  C        17.2108207674       10.2850689130        7.1440244687
  H        18.8526201378        9.7421668025        8.5731521608
  H        17.9596580608        8.4828122771        7.9208086602
  C        17.5789926967       11.6136076332        6.5040329242
  C        16.7202557531       11.0505672074        8.3514490706
  C        16.2214793281        9.5676962638        6.3014740301
  C        17.2741566655       12.7360267482        7.2053696577
  C        18.0105564892       12.0157378075        5.2359608995
  C        16.7428352968       12.4250317823        8.4274199508
  C        16.3354588919       10.4377862676        9.5238442379
  H        16.6326861999        9.1657710398        5.3878334178
  H        15.9045768487        8.7318093762        6.8990002892
  C        14.9273192734       10.3591594007        6.1352334892
  S        17.7000053834       14.2501597439        6.5228445224
  C        18.1596633228       13.3840265645        5.0741370763
  H        18.1570233244       11.2274462543        4.4984463665
  C        16.4163434183       13.0375686469        9.6041933502
  H        16.3855458371        9.3551049237        9.5724864437
  C        16.0540951863       11.0841541505       10.7218136444
  H        15.2175575637       11.2864433702        5.9132689758
  H        14.4864294418       10.3377372111        7.1897528197
  C        13.8245853572        9.9049239462        5.1176145686
  C        18.4808552685       14.0341835485        3.7768099425
  C        16.0815640376       12.4462841527       10.7840781667
  H        16.4175456840       14.1145966254        9.4867527358
  C        15.7616983589       10.7899782551       12.0134061182
  H        12.8577260379       10.2408585211        5.5052682060
  H        13.8005506600        8.7970217843        5.1376679403
  C        14.1602954979       10.2372056182        3.6890460549
  C        18.4321462463       15.4478549509        3.5109337351
  C        18.9276803502       13.1698731146        2.6388334779
  C        15.7516455968       13.2590540961       11.9732702468
  C        15.5068676983       11.9018832883       12.7483703447
  S        15.3796427753        9.2832182494       12.7667058605
  H        15.1432897771        9.7280769786        3.4145085020
  H        14.4062023231       11.2700858545        3.4800454537
  C        13.0726849104        9.8793743777        2.7406542488
  N        18.2193926925       16.4448799672        4.4550048852
  C        18.6300954880       15.9185488458        2.2309287550
  C        19.1005090014       13.6837108271        1.4026536054
  H        18.9486676710       12.0856311647        2.8194471253
  C        14.4945202596       14.1191732235       11.8641745386
  C        16.9419095927       14.0450331577       12.5779922717
  C        15.1541322877       11.5159328187       14.0429896171
  C        14.9887285474       10.1484932723       14.2068828837
  H        12.4786333199        9.0584304241        3.1096709763
  H        12.4541678256       10.7824935694        2.7861143104
  C        13.5275273417        9.7921141228        1.3149722890
  S        18.3286284541       17.8868540166        3.6891734242
  N        18.4909842133       17.3359999189        2.1670348040
  C        18.9075774986       15.1200712458        1.0966207680
  H        19.5054266817       13.0079579528        0.6896011618
  H        14.6343615551       14.8396811135       11.0340999685
  H        14.4243726524       14.5985063538       12.8325449097
  C        13.1995306590       13.3009903181       11.6298843368
  H        17.0475719741       14.9976489797       12.0543180951
  H        16.5711709005       14.4249999830       13.5698158590
  C        18.2451016548       13.2664237218       12.7498219949
  H        15.0157569468       12.3273113352       14.7265006028
  C        14.5723719491        9.4569831162       15.4799249749
  H        13.8808782610        8.7352554811        1.1357501065
  H        14.3303092321       10.5031230806        1.1301982364
  C        12.4239840926       10.0549281539        0.2471208204
  C        19.0989507486       15.6931624721       -0.1557254249
  H        13.2218618881       12.5515780530       10.8187694999
  H        12.9357767802       12.7443782628       12.6043693799
  C        12.0132467405       14.0842473750       11.1481104105
  H        18.9556442667       13.6801634164       12.0596637948
  H        18.0495729852       12.2140393137       12.5874809818
  C        18.6964966219       13.3410020990       14.1732863599
  C        14.5903121433        8.0629036730       15.6673333067
  C        14.0831942425       10.1804208123       16.6623915270
  H        11.9523097340        9.1129760949       -0.0102842137
  H        11.6643740966       10.7190354993        0.6224513449
  C        12.9596027021       10.7031024045       -1.0957501440
  H        18.7267825829       16.7272874685       -0.1149661298
  C        19.2789470487       15.1831490914       -1.3862611118
  H        12.4802979972       14.7280848735       10.4801261548
  H        11.5848157291       14.7183410977       11.9167441060
  C        10.9982582211       13.3059186235       10.4411251388
  H        18.5353620595       14.3871400501       14.4867959459
  H        17.9849752569       12.8206786479       14.8619365589
  C        20.1715284822       12.9347741643       14.4269917277
  N        14.8990147295        7.1193663988       14.7050252291
  C        14.0984195677        7.4289339350       16.7889560815
  C        13.5261678703        9.5864952042       17.7932330289
  H        14.1507715300       11.2457549325       16.5631128965
  H        12.8070193718       11.7380118804       -1.3747187106
  H        12.5924540626       10.0210552546       -1.8533412857
  H        14.0248499298       10.5987035738       -1.1711718921
  S        19.6848484716       13.5404754629       -1.8930862421
  C        19.1444161058       16.0982004789       -2.5549941721
  H        11.3566127244       12.8511794309        9.5507622561
  H        10.7257937960       12.5004527935       11.1044168246
  C         9.6431606399       14.0140548484       10.0880355434
  H        20.7750378493       12.9094320290       13.4861501795
  H        20.1753038202       11.9334121053       14.8708451677
  C        20.9550031522       13.8819262372       15.4400125627
  S        14.9688720411        5.6573189203       15.3654181266
  N        14.2970637913        6.0539672479       16.7713239499
  C        13.6841091405        8.1045238548       17.9820656255
  H        13.2857415606       10.0953144665       18.6566289809
  C        19.9297449620       14.1595616107       -3.5081527550
  N        19.5214993403       15.4517048709       -3.6374433656
  O        19.0779321686       17.3408086843       -2.4534625733
  H         9.1481955320       14.0829588347       11.0321339036
  H         9.7858754773       15.0044105004        9.5915792415
  C         8.8437681560       13.1787372072        9.1241502171
  H        20.2803846660       13.9828558594       16.2520963143
  H        21.8108298468       13.3021228228       15.8124466710
  C        21.4919616381       15.1606923318       14.7700034239
  C        13.4795364695        7.4260531948       19.2260858572
  S        20.6465037611       13.2693629914       -4.8645637817
  C        19.5547454227       16.2077746436       -4.9118691746
  H         9.5178547237       13.1511846333        8.2570698472
  H         8.7424325999       12.1802764942        9.5171716405
  C         7.6006854256       13.8643842774        8.6894437474
  H        20.6920497183       15.7554990835       14.4287641229
  H        22.1591479420       15.0271650520       13.9194018269
  C        22.1583597334       16.0385757028       15.8112858455
  H        13.8421634599        6.4562092166       19.1456452607
  C        12.9460469692        7.7197877704       20.4703363506
  H        19.9092916132       15.6749761436       -5.8020785993
  H        20.3264078228       16.9920810143       -4.8790628759
  C        18.1878390276       16.7621179380       -5.4148059336
  H         7.1864582749       13.2627021219        7.9012802798
  H         7.7968524850       14.8856560843        8.3738269420
  C         6.5882879585       13.8425906810        9.8203362028
  H        21.4184824346       16.3535399621       16.5533616157
  H        23.0242980935       15.4841173168       16.2698040710
  C        22.6812327294       17.4536500041       15.3331240140
  S        12.4089104566        9.2825958314       21.0788629596
  C        12.7979111773        6.6208579905       21.4558118744
  H        18.1187593007       16.9984481085       -6.4717623354
  H        17.9898305778       17.6784308774       -4.8378576213
  H        17.4885622165       15.9555209058       -5.3190329926
  H         5.7116227773       14.3119934995        9.4432115448
  H         6.2174343228       12.8916708620       10.0898428043
  H         6.8720804072       14.4024942266       10.7296356900
  H        23.3360327022       18.0404227943       15.9707968258
  H        23.3284456557       17.2861998616       14.4950943957
  H        21.9545062717       18.1385736477       14.7714704044
  C        11.9243395004        8.4032071617       22.5556821234
  N        12.1834551818        7.1211332751       22.5877870037
  O        13.1461037914        5.4659334580       21.1653521594
  S        11.3012117597        9.1159791455       24.0523986351
  C        12.0237021077        6.3423124828       23.8059975491
  H        12.0381613589        5.2758591711       23.6427099602
  H        11.0414582086        6.4767399922       24.3590864889
  C        13.1913370341        6.4179439579       24.7742652966
  H        14.1109153757        5.9080500250       24.5806908262
  H        12.7667513963        5.9334182183       25.6271652280
  H        13.4241805024        7.5151815990       24.9559750645
