352
 i =    23900, time =    23900.000, E =        25.0147502956
  H         9.5097777060        7.4468421029       32.4724937344
  C        10.3827491938        6.8357869294       32.0790453260
  H        11.1417679786        7.6220531833       32.1725660119
  C        10.0023733816        6.2992986315       30.6881329989
  C        10.6121411686        5.7125024051       33.1733007288
  C        11.2402432231        5.8359338777       29.8141180202
  H         9.2976299402        5.4902387867       30.8051525513
  H         9.5381666253        7.1829453845       30.3352664260
  H        11.6503774178        5.3864279738       33.1960744743
  H        10.4779494378        6.0260678998       34.1881771873
  H         9.9218334108        4.8556396362       33.0278156541
  C        11.0207627952        4.8811068754       28.6643645043
  H        11.9118655374        5.1912713504       30.4244980620
  H        11.7266766127        6.6908161012       29.3723304934
  C        10.8429197375        5.4494160451       27.3030842721
  H        11.8541314796        4.1846782556       28.5387012220
  H        10.1821626378        4.2564902054       28.9716720414
  C         9.8441874960        4.6948843989       26.4199124937
  H        11.8322658244        5.5113482865       26.7283573884
  H        10.5652035502        6.4397083474       27.3086849678
  C         8.4953819964        5.3524372233       26.3435403749
  H        10.2200257844        4.6287338584       25.4250218171
  H         9.7692209703        3.7302725951       26.7889121009
  C         7.4571310484        4.5766900339       25.5109778366
  H         8.1109029665        5.5236764400       27.3655698867
  H         8.5028107124        6.3034284388       25.8332091874
  C         7.2086771610        3.1919188380       26.1993496578
  C         7.8914218978        3.8600455140       24.2944703313
  C         6.1542599151        5.3698263044       25.2991713223
  C         7.3540422099        2.1287145346       25.3584216140
  C         6.8546721198        2.8689720233       27.5162421304
  C         7.8068229794        2.5602257751       24.1560958412
  C         8.2753917910        4.6184138510       23.2093190400
  H         6.2862605553        6.3538430562       24.8556825843
  H         5.9630112297        5.6397646552       26.3202405546
  C         4.9232736659        4.6806522111       24.7235649852
  S         7.0016817060        0.6329331166       26.1545170543
  C         6.6405804755        1.5150908493       27.6290635770
  H         6.7097128192        3.5635527821       28.2881624382
  C         7.9987423807        1.9393799551       22.9226780194
  H         8.3883177596        5.6743985251       23.3967899559
  C         8.5499418396        4.0532261251       22.0268010703
  H         4.9867048429        4.4418812668       23.6437069632
  H         4.6992980610        3.8007375278       25.3412516892
  C         3.7348992612        5.6879638763       24.8735552193
  C         5.9073077559        0.8496933549       28.8173293422
  C         8.3917690554        2.7078308788       21.7894053994
  H         7.8411199963        0.8756710662       22.8378048127
  C         8.8939091715        4.4726395713       20.7699094910
  H         2.8345447640        5.3623199829       24.3022220986
  H         3.9438454473        6.6316767072       24.3174564885
  C         3.2419975711        5.9897294534       26.3062835644
  C         5.9378045251       -0.4932572989       29.1292469751
  C         5.2378210998        1.6900904203       29.8234329574
  C         8.7490071510        2.0496809012       20.5283784150
  C         8.9872664994        3.4283306808       19.8691688304
  S         9.1338011386        5.9339066970       20.0180151035
  H         2.3148909341        6.6773368352       26.3109474598
  H         3.9590699774        6.6495646709       26.8680902905
  C         2.8370980231        4.7331020143       27.0386357459
  N         6.3956551702       -1.5471085342       28.2414947421
  C         5.6292979321       -1.0184298345       30.4323988318
  C         4.9428648359        1.2393078059       31.1052719622
  H         5.2111445639        2.7646098688       29.5533889007
  C         7.6611013517        1.3231867730       19.7454043980
  C        10.1623854720        1.2275437327       20.4864313155
  C         9.2850884934        3.8610022367       18.5539284527
  C         9.4471602994        5.1758360699       18.5355017891
  H         2.6454971508        4.0388464362       26.2205327144
  H         3.7140829449        4.3051547435       27.5692820643
  C         1.5739564013        5.0626456028       28.0145691641
  S         6.2439037391       -2.9474341317       29.0249383363
  N         5.7778882189       -2.4200558048       30.4830633629
  C         5.1893949758       -0.1682831378       31.5395616242
  H         4.4763108482        1.9066496676       31.8426432800
  H         7.4003380054        0.4978411794       20.3961588652
  H         7.9917848652        0.8465350552       18.7570734813
  C         6.3456752343        2.0683813650       19.5237436434
  H        10.3330266169        0.7069869343       19.5164172232
  H        10.1138859514        0.4193464463       21.2158965449
  C        11.3847649942        2.0888301607       20.9182570083
  H         9.3554169891        3.1511724193       17.8014499428
  C         9.7714713576        5.9272331762       17.2574700370
  H         0.8229341897        4.2373744950       28.2536973443
  H         0.9098046709        5.7955082069       27.5909282037
  C         1.9792574732        5.7115935489       29.3815430897
  C         4.8035183580       -0.7745117209       32.7919657650
  H         6.3100634314        2.8575356090       18.7037294644
  H         6.0086814871        2.5983381838       20.4453970532
  C         5.3172871323        0.9959117301       19.1934829750
  H        11.2049122519        2.5787854327       21.8909855368
  H        11.4526366304        2.8932895895       20.1774726541
  C        12.6648147898        1.3490378255       20.8605805850
  C         9.8732719990        7.3214954413       17.1552593121
  C         9.9321499073        5.1672601513       15.9579103883
  H         2.8902836895        6.3732812668       29.2813783530
  H         1.1543083377        6.4321706715       29.5956260299
  C         2.1397451138        4.6820847020       30.4769933881
  H         4.7437488471       -1.8360250713       32.7017758815
  C         4.5226428477       -0.2658188361       33.9757707004
  H         5.0666612921        0.6323809615       20.1312055945
  H         5.7331210970        0.1478008097       18.6532534421
  C         4.1383465338        1.6460475676       18.5423777604
  H        12.7840173434        0.6112030807       21.7020065690
  H        12.7615480795        0.7552362326       19.9337941994
  C        13.8808980765        2.2443752177       20.8888425048
  N         9.6527051538        8.2321207791       18.2228162459
  C        10.1726505859        7.9978590922       15.9832893399
  C        10.3114177029        5.8712829642       14.7827444000
  H         9.9950375707        4.0910520576       15.9005432627
  H         2.0609100420        5.0951629900       31.4230412504
  H         1.2793302661        3.9370694652       30.4661434304
  H         3.0949967620        4.1324895027       30.4644277782
  S         4.2791655128        1.3205099349       34.4168321746
  C         4.4647034198       -1.2740064009       35.0647959725
  H         3.8796019162        2.4975330924       19.1198901376
  H         4.3243211638        1.9926781796       17.5003456348
  C         2.9176813827        0.7095193561       18.6292804672
  H        13.7174803659        3.1765494997       20.3975674556
  H        14.7025416582        1.7057076993       20.3840390736
  C        14.4649510758        2.4912319901       22.2524327106
  S        10.0784855216        9.7195413067       17.7207203097
  N        10.3609586198        9.3895464716       16.1961154694
  C        10.4397627289        7.3632676034       14.7470436236
  H        10.4978376778        5.3771187064       13.8343167891
  C         4.0902571863        0.7411683490       36.0426218377
  N         4.2126188588       -0.6211747631       36.1701852986
  O         4.5011823878       -2.4989149252       34.9608952533
  H         1.9959509159        1.2660292908       19.1032360715
  H         3.1773895333       -0.0967608688       19.2953825568
  C         2.4836346502        0.0855886482       17.3141684239
  H        15.1607133041        3.3487563539       22.2877787346
  H        13.6741148982        2.7785376919       22.9103895883
  C        15.1180011729        1.2650147991       22.8556278141
  C        10.8133237404        8.2496154738       13.6424392748
  S         3.7508533558        1.7114523544       37.5296134957
  C         4.1898157973       -1.3426603466       37.4928072793
  H         1.9832618934        0.9507430396       16.8120071445
  H         3.2528269747       -0.2156545373       16.6315424609
  C         1.4455110431       -1.0038162021       17.5596377706
  H        15.2313752896        0.4345947054       22.1852278947
  H        14.3118657037        0.8058058308       23.4317240020
  C        16.2859396119        1.7096378824       23.7206941458
  H        10.6220876226        9.2386425227       13.9190285272
  C        11.3659671299        8.0872794205       12.4036859063
  H         3.3940910724       -0.9540733273       38.0444703705
  H         3.7230814513       -2.3294452285       37.2885008193
  C         5.5424516474       -1.4957849575       38.1983641669
  H         0.6986446096       -0.9983635083       16.7607482698
  H         0.9426038457       -0.7095848703       18.4333772795
  C         2.0718325375       -2.3278152971       17.7481460041
  H        16.1340063208        2.6112544091       24.3099709130
  H        16.3188953629        0.9833114234       24.5117073355
  C        17.6253042957        1.8962554663       23.0680516660
  S        11.6252421638        6.5463094263       11.7747537409
  C        11.6087766214        9.2837629335       11.6068505449
  H         5.4245710647       -1.3978222593       39.2617627137
  H         6.0502305179       -2.4139577170       37.8561489569
  H         6.1807518361       -0.7004262858       37.8239772031
  H         2.6739596548       -2.6443847274       16.8540068630
  H         1.2610899299       -3.0584932237       17.9503908386
  H         2.6176722824       -2.2558362076       18.6395548633
  H        18.3413922090        2.2753586409       23.7825640816
  H        17.4902550152        2.4754076955       22.1550433209
  H        17.9183541500        0.9139135452       22.8169174926
  C        12.2015294884        7.4322538012       10.3886906009
  N        12.1789639847        8.8106149605       10.5068310884
  O        11.4122471811       10.4773538648       11.8972391885
  S        12.8894077143        6.6773345235        8.9343493936
  C        12.2591484887        9.6711335116        9.3214119063
  H        12.7862448875       10.5595508535        9.6807178929
  H        12.9602967135        9.3117571348        8.5816852972
  C        10.8923004137        9.8683591163        8.7765316281
  H        10.3500744116       10.6619749683        9.2748431455
  H        10.8194327756       10.0673069866        7.7007571287
  H        10.3382438849        8.9772217602        8.7563483778
  H        20.6340854629       10.8752925224        3.5563632154
  C        21.4351121791       10.1260654380        3.5158639968
  H        20.9532851793        9.2080623792        3.6554143721
  C        22.4443596300       10.4497214591        4.6789932308
  C        22.1344931086       10.1434368244        2.1734178660
  C        21.8926077308       10.4362416522        6.0830664316
  H        23.3342769088        9.8518215724        4.5978860804
  H        23.0131265635       11.4035387285        4.4988520547
  H        21.7386282894       10.8755106277        1.5044601800
  H        22.1114166796        9.1492039310        1.6869793179
  H        23.1955387103       10.5004927373        2.3164732537
  C        20.7391090019        9.3852606487        6.2909698567
  H        22.6458299940       10.2396078227        6.8350897581
  H        21.4048795323       11.3664840623        6.2804147637
  C        20.1186082883        9.5433078673        7.7159723445
  H        21.0210924938        8.3448339174        6.1079202658
  H        20.0606651045        9.6337511178        5.5323215427
  C        18.9020978082       10.4398955969        7.8150016603
  H        20.9318103820        9.8852744384        8.3616379458
  H        19.8504349970        8.5366050784        8.0780104722
  C        17.5932926593        9.8645132946        7.2203453553
  H        18.7907614108       10.8373869451        8.8063294805
  H        19.1275096573       11.3135311448        7.1284633188
  C        16.3640084618       10.7975601212        7.1670310444
  H        17.3813309392        8.9626433070        7.7016978018
  H        17.8280306112        9.5147138165        6.1701359250
  C        16.6991256862       12.0909157700        6.5175077642
  C        16.0677629823       11.5460894306        8.4025441107
  C        15.1430699801       10.1707045009        6.4914039235
  C        16.5108460157       13.2457344498        7.2487319835
  C        17.1800101900       12.3608137142        5.2317128890
  C        16.1089736774       12.8972398763        8.5233497595
  C        15.7190473579       10.9168925168        9.6034983678
  H        15.5068699264        9.8642784011        5.5697932562
  H        14.7593871160        9.3206673557        7.0273973659
  C        13.9648530977       11.0372579402        6.2559653670
  S        17.0759814574       14.7141940610        6.4828164257
  C        17.5302999647       13.7195750854        5.0904926348
  H        17.2110524681       11.5283141218        4.4928740777
  C        15.7689686764       13.5364238170        9.6752884538
  H        15.7645806807        9.8215807152        9.6269565600
  C        15.3562931101       11.5175315622       10.7501913943
  H        14.3128236191       12.0009767616        5.9153818165
  H        13.4494673666       11.2728845071        7.1789961119
  C        12.9958120922       10.3841664226        5.2304128639
  C        18.0775221306       14.3416918538        3.8351161726
  C        15.3615053000       12.8647253576       10.8363202024
  H        15.7024791016       14.5617805751        9.6490480961
  C        14.9017394150       11.1298017234       11.9704477708
  H        11.9244563123       10.5554700485        5.5558086637
  H        13.1372528997        9.3340406872        5.0763173382
  C        13.1886563562       11.0117144336        3.8413102324
  C        18.1114613223       15.6985449282        3.5042489303
  C        18.4452989023       13.3308155304        2.7634207206
  C        15.0081874904       13.5608930093       12.1776641227
  C        14.7306339867       12.2164012287       12.8216026609
  S        14.6231638216        9.5974958791       12.6956236212
  H        13.7446494681       11.9554871138        3.8398167981
  H        12.2182514877       11.3902648570        3.5884534352
  C        13.6953216359       10.0191294037        2.8421045040
  N        17.7587659121       16.7797828310        4.3229864348
  C        18.4993025634       16.1214735062        2.2764460373
  C        18.7365562146       13.7754325192        1.4652405017
  H        18.5757559947       12.3200749694        2.9240898054
  C        13.8377079283       14.4734853234       11.9497495125
  C        16.1970012663       14.2520069899       12.8435470257
  C        14.1927206872       11.7567241176       14.0554980646
  C        14.2264077617       10.3875333156       14.2020926434
  H        14.8077450808       10.0925066331        2.9369381946
  H        13.5701098996        8.9398615344        3.1335554898
  C        13.0550647704       10.3293945922        1.5116862552
  S        18.0419207152       18.1742232785        3.6099103193
  N        18.4653069312       17.5618432680        2.1370543711
  C        18.7873006502       15.2507227642        1.1900105782
  H        18.9616111359       13.0089485357        0.7278877235
  H        14.0451885203       15.0824524156       11.1235548541
  H        13.4984903385       15.0129949128       12.8178632462
  C        12.5410656216       13.7250573471       11.6526645579
  H        16.6142674789       14.9081529191       12.0954468915
  H        16.0376479727       14.7980965982       13.7989296339
  C        17.3304676450       13.2956417802       13.1229354429
  H        13.9354518244       12.4441607096       14.8145088707
  C        13.8187613539        9.5781637408       15.4195973712
  H        13.1719072983       11.3744751721        1.1888189348
  H        11.9807473726       10.0996346652        1.6011462124
  C        13.6394147104        9.4860021484        0.3513846711
  C        18.9255767130       15.8580182287       -0.0485662943
  H        12.8124806388       13.3060590481       10.6570918136
  H        12.2530992181       12.8858613336       12.2997963271
  C        11.3010560171       14.5993778958       11.4853065777
  H        17.5632935386       12.6538863921       12.2399883658
  H        17.0604855406       12.6622627279       13.9448610052
  C        18.5753161001       14.1169183116       13.5393954532
  C        13.8110141004        8.1824443520       15.4917495840
  C        13.4354725901       10.2895646102       16.6592201213
  H        14.7109299018        9.7106118619        0.3607222914
  H        13.4648538107        8.4369018302        0.6182995029
  C        12.9710389108        9.9067566572       -0.9370222191
  H        18.7088307019       16.8974190710       -0.0395193634
  C        19.1501364115       15.3380691723       -1.3367044728
  H        11.4647784729       15.4010938714       10.7863728427
  H        10.9017962607       15.0487273386       12.4017746541
  C        10.0951511170       13.7717410947       11.0372208801
  H        19.2370902972       14.4155913063       12.6976175724
  H        18.2769414032       15.0650918626       14.0672815084
  C        19.4767378283       13.3616181547       14.4610363210
  N        14.0547481911        7.3744163097       14.3944060431
  C        13.5911925618        7.4761262716       16.7044702410
  C        13.2180271967        9.5977266894       17.8413755865
  H        13.3980695548       11.3502790965       16.7085739773
  H        12.5070754700       10.8848509748       -0.8463281574
  H        12.1400079943        9.1350297907       -1.0853186878
  H        13.6679825891        9.9109788602       -1.7314605584
  S        19.4437552825       13.6888600986       -1.7374031876
  C        19.2048883542       16.2954925925       -2.4642746898
  H        10.5052270083       13.0475291624       10.3642383342
  H         9.6054877539       13.1797055210       11.8054072899
  C         9.0775360191       14.5793337494       10.3105355221
  H        19.6438405328       12.4089227862       13.9358644677
  H        18.9139013245       13.0258397256       15.3903643322
  C        20.9132196323       13.9415156252       14.6526436075
  S        14.0098207440        5.8252673600       15.0351931950
  N        13.8080082766        6.1210811151       16.6182142664
  C        13.2468752691        8.1137665617       17.9100067531
  H        12.9492433435       10.1433019014       18.7090347202
  C        19.7411778423       14.1980183724       -3.3823536705
  N        19.5940012880       15.5378340480       -3.5466508475
  O        19.0180412532       17.5160895949       -2.3151446200
  H         8.5108147967       15.1805354063       11.0515608773
  H         9.4985394434       15.2458329417        9.5544057261
  C         8.2150525411       13.5636822887        9.4988341911
  H        21.6769511397       13.2583053316       15.1510462946
  H        21.3433363346       14.1094036645       13.7004328835
  C        20.9354459953       15.1971134952       15.5663597139
  C        12.9671628861        7.3338467539       19.0403460934
  S        20.2919600548       13.1732407626       -4.7418695220
  C        19.8752921882       16.2042483952       -4.8607176809
  H         8.9629655287       13.1672617721        8.7562858671
  H         8.1229132766       12.7154356703       10.0897524702
  C         6.7911121092       14.0807004571        9.0864732793
  H        21.5722354821       15.1593722249       16.4834234388
  H        20.0050534226       15.2529458668       16.1722869553
  C        21.1651664579       16.6080907455       14.9317538583
  H        13.4333821316        6.3734421882       18.9958638479
  C        12.5028032605        7.6478276479       20.3051844275
  H        20.7749675743       15.8730189205       -5.3840299483
  H        20.0301357531       17.2555037994       -4.7862148217
  C        18.6640952797       16.2763760182       -5.8117818279
  H         6.4548434573       13.7345033327        8.1905683350
  H         6.8951478473       15.1811411380        8.8273654455
  C         5.8962182718       13.7703806400       10.2707341201
  H        21.6965890598       16.4416034058       14.0160125544
  H        20.3053836119       17.0549543442       14.5357966206
  C        21.8263734907       17.6285706467       15.8816910687
  S        11.8137956855        9.1547708446       20.8282224687
  C        12.3203271164        6.5245425829       21.2703473678
  H        19.1299676641       16.2653015779       -6.8491316134
  H        18.1359827675       17.2599041058       -5.8365469982
  H        17.9670092389       15.4173290459       -5.7808469535
  H         5.0298280869       14.3527455916       10.2703045389
  H         5.6294060447       12.7332295265       10.3732463843
  H         6.3270516010       13.9680237549       11.2373284163
  H        22.0066490950       18.5382775579       15.4532168043
  H        21.1113833576       17.8062528728       16.6699311131
  H        22.7627004864       17.4064244409       16.2638387532
  C        11.4323196101        8.3095877690       22.3275497168
  N        11.7230305654        6.9824522275       22.3805068309
  O        12.6887702709        5.3359352842       21.1095918047
  S        11.0450378359        9.0338311549       23.8170041005
  C        11.6838899752        6.1775439691       23.5642665292
  H        11.4690853075        5.1037697289       23.3615571326
  H        10.8544185799        6.5708261981       24.2228897799
  C        12.9441384367        6.2306043498       24.3639777781
  H        13.3607489254        5.2159942090       24.6254430575
  H        12.8483809638        6.6983564432       25.3245153288
  H        13.6253887332        6.8498104742       23.8352674336
