352
 i =    46600, time =    46600.000, E =        24.7236658321
  H        12.3289862485        6.4443009917       33.1006616154
  C        11.7556603267        5.8566881429       32.4061724939
  H        12.5094413558        5.0420795414       32.1235970100
  C        11.1627940853        6.7168891935       31.2591787305
  C        10.6643468315        5.1894250570       33.1958014530
  C        11.5435965854        6.1153311218       29.9231438266
  H        10.0672913073        6.6647962469       31.3292836858
  H        11.4340608647        7.7520901000       31.3429126017
  H        10.2623055596        4.4433367643       32.6410796628
  H        11.0808043780        4.7458527582       34.1553879755
  H         9.8682213943        5.8338580041       33.4669537898
  C        10.4074363810        6.1904487118       29.0208899443
  H        11.9228264118        5.1070558689       30.0730128484
  H        12.3033588370        6.6573705422       29.4216610270
  C        10.8327583213        5.7551771168       27.5911369696
  H         9.6398516104        5.5719673296       29.3971525892
  H         9.9600943983        7.2035857748       29.0023316241
  C         9.5684422856        5.0275271529       26.9639192964
  H        11.6714440501        4.9563762295       27.5040865642
  H        11.2349624818        6.5184658386       26.9601863918
  C         8.5892589783        6.1240225999       26.5004550191
  H         9.9085288030        4.4490579006       26.1387911636
  H         9.2960578662        4.3320807519       27.7024932763
  C         7.4246809200        5.4275289090       25.7021915069
  H         8.2338948848        6.7015546204       27.2716308160
  H         9.0851926005        6.8203674097       25.9168243960
  C         7.0544174784        4.1276372191       26.3740243713
  C         7.8690464772        4.7257320101       24.4785947570
  C         6.1440675657        6.2849757985       25.5335269946
  C         7.3872972561        3.0342598317       25.6304239658
  C         6.5098791976        3.7821089651       27.6351546205
  C         7.8935690791        3.3830560439       24.3869302246
  C         8.3420283793        5.3943813560       23.3056667197
  H         6.4068737070        6.9008013897       24.7053833514
  H         6.0705101669        7.0078227926       26.4367385882
  C         4.9187829966        5.4805211431       25.2287015173
  S         7.0859657427        1.5487086077       26.3931288592
  C         6.3470566615        2.4193860582       27.7078420642
  H         6.2064409472        4.5630236045       28.2728758159
  C         8.3799496364        2.7416786036       23.3056007362
  H         8.5799147920        6.4496621517       23.3439354857
  C         8.6585733109        4.6871876006       22.1928807732
  H         5.1056256328        4.9743079246       24.2793337782
  H         4.6497622977        4.7782932420       25.9435547070
  C         3.7054987889        6.3884773279       24.9551462302
  C         5.8480068299        1.7303942253       28.9137552517
  C         8.6782487056        3.3338873876       22.1344176762
  H         8.4053652667        1.6632619573       23.3439297367
  C         8.9697664364        5.0701144481       20.8893323359
  H         3.1527591075        6.0152572457       24.1766031433
  H         4.1071282316        7.3510603128       24.5720093078
  C         2.8037413171        6.6475723026       26.2298469097
  C         5.7153309668        0.3400864550       29.1107599571
  C         5.4206481972        2.6597047646       30.0048194774
  C         9.0756855234        2.5830121088       20.8373896966
  C         9.2209006834        3.9690538655       20.1217969090
  S         9.3143511774        6.5792962898       20.0084495519
  H         1.9576276319        7.2542664676       25.9107909447
  H         3.3733782332        7.1833999396       27.0162093692
  C         2.0845880970        5.3440759163       26.6798197776
  N         5.8666220695       -0.6579757820       28.1313605778
  C         5.4778643674       -0.1447160878       30.3951938530
  C         5.0819626444        2.1563127117       31.2206069172
  H         5.2388055420        3.7287967974       29.9149923654
  C         7.9406494613        1.5774788497       20.3366822100
  C        10.3768230277        1.8913878758       21.0552328287
  C         9.5575555712        4.3188183648       18.7803450684
  C         9.4853689301        5.6750842307       18.5391184990
  H         1.5143352303        4.7218446507       25.8970304626
  H         2.9328287656        4.6601004321       26.9415183336
  C         1.1853383833        5.4525248063       27.8583622546
  S         5.8191375670       -2.0172500602       28.9015613013
  N         5.5512858897       -1.5358538571       30.4414581721
  C         5.1693352666        0.7126118556       31.5016548161
  H         4.9815692939        2.7930613419       32.0365469474
  H         7.6048630807        1.0482201940       21.2458048691
  H         8.3122048945        0.8041960462       19.6040380144
  C         6.8880884250        2.3508389372       19.5253602137
  H        10.1573374748        0.8666392890       21.2574378530
  H        10.7949358495        2.3141446899       21.9274538802
  C        11.3691099250        1.9148165507       19.8886008200
  H         9.6252426815        3.4694354867       18.1217706124
  C         9.8549557621        6.3355469944       17.2456224725
  H         0.6413838302        4.5439621332       27.8935428100
  H         0.5555514797        6.2886402617       27.7041690258
  C         2.1457428532        5.5897729473       29.0638649957
  C         4.9216943120        0.0740757431       32.7569835819
  H         7.3502324323        2.9520891597       18.7073103077
  H         6.4893290313        2.9747253261       20.2769785909
  C         5.8476652237        1.3666673999       18.7630551393
  H        11.5851569306        2.9267968662       19.6350019752
  H        10.8347703458        1.6138235984       18.9867876058
  C        12.5929758297        1.1656200458       20.2289039471
  C         9.9437207195        7.7369072345       17.0568356165
  C        10.0829859356        5.5357152968       15.9900146205
  H         2.6494824730        4.6155547155       29.2894341057
  H         2.8334456565        6.4157784011       28.8391547388
  C         1.4177934284        6.0201449478       30.3596009780
  H         4.8092428860       -0.9732553631       32.7085592063
  C         4.7377512633        0.5008371967       34.0788492693
  H         5.3175082956        0.7822674603       19.5359814881
  H         6.3196170495        0.6379833798       18.1422865681
  C         4.7241119908        2.1684194278       18.1084857732
  H        12.4432172158        0.5949548356       21.1219698462
  H        12.8304688963        0.4816808536       19.4473944141
  C        13.8405125348        2.0180494413       20.4589486786
  N         9.6811130032        8.7085951220       18.0640072149
  C        10.1900105694        8.3168209326       15.8512853946
  C        10.4534322827        6.1063027505       14.7985057162
  H         9.8391277700        4.4988511440       16.1239916135
  H         1.1024634708        5.0693552554       30.8942651227
  H         2.1903436192        6.5290291252       30.9462169151
  H         0.5301050290        6.6563722463       30.1879947799
  S         4.3939630780        2.1410373677       34.5111622072
  C         4.7647966787       -0.5092810945       35.1654877399
  H         4.4422461793        3.0602867510       18.8029657978
  H         5.0104586422        2.6205728361       17.1481745485
  C         3.3418239859        1.4559604190       18.0448408734
  H        13.9442254581        2.8984652079       19.8570106735
  H        14.7452585532        1.4470360946       20.2946582488
  C        13.9567788286        2.6944717615       21.8361178159
  S         9.6394981130       10.1749791982       17.2951780773
  N        10.1496547524        9.6729319339       15.8142412418
  C        10.5895586848        7.6176694174       14.6963993077
  H        10.5023709120        5.5085615597       13.9267942945
  C         4.2287913378        1.4708542666       36.2186407401
  N         4.3728842425        0.1056709202       36.2925702555
  O         4.9208093109       -1.6950153451       34.9615881778
  H         2.5876920010        2.1306056047       17.6790210048
  H         3.0239497974        1.2427513112       19.0167252874
  C         3.5937464486        0.1575605143       17.2343373800
  H        14.5314078437        3.5849532206       21.7467019001
  H        13.0924738149        3.2214195929       22.1303318698
  C        14.3737262834        1.8620217851       23.0837939086
  C        10.8540260139        8.2869417226       13.4445621974
  S         3.7081929236        2.3277270650       37.6804041428
  C         4.2686651449       -0.6605231566       37.5637721270
  H         4.0882011356        0.4861278244       16.2858322480
  H         4.3806784938       -0.5118635939       17.7197375847
  C         2.2644137095       -0.5441425364       16.9654410623
  H        14.1353876353        0.8168035783       22.9350090284
  H        13.7372901544        2.1668853080       23.8581304854
  C        15.8064727321        2.1763991862       23.3682689591
  H        10.5112222102        9.2919154351       13.3867923443
  C        11.4383030333        7.9339744124       12.2841466204
  H         3.4143601917       -0.3457615345       38.1808786384
  H         4.2862357656       -1.7277301438       37.3932757678
  C         5.5351488527       -0.4343321100       38.3848873623
  H         2.3292355049       -1.2017589697       16.1003888907
  H         1.4241834760        0.1178661015       16.7357556753
  C         1.7330223490       -1.3348013037       18.2537767497
  H        15.8795487013        3.2654029651       23.3317743043
  H        16.0417673859        1.7196170464       24.3102493031
  C        16.7865012435        1.6022837323       22.2873490822
  S        12.1749361501        6.4635489461       11.9628085939
  C        11.3199936721        8.9485995716       11.2123048744
  H         5.3611078871       -0.1284268006       39.3598644772
  H         6.0652724423       -1.4345846265       38.5691782318
  H         6.2718003019        0.1802530680       37.8794722166
  H         1.2659159455       -0.5763586570       18.9572111086
  H         2.4418630971       -1.8595988568       18.7631036465
  H         0.9158008976       -2.0416171967       18.0244084322
  H        16.4177535805        0.8257450030       21.6148672020
  H        17.6721446577        1.0627840466       22.7688204436
  H        17.2116750488        2.4175159472       21.6793124485
  C        12.4503612157        7.1480375550       10.3430476537
  N        12.0707673990        8.4669709217       10.2136609267
  O        10.7710071673       10.0323499481       11.3183512230
  S        13.1351988343        6.2194792461        8.9784446870
  C        12.1559793622        9.2163127495        8.9870665579
  H        11.9475717159       10.2806714980        9.0717380111
  H        13.1120983873        9.2360059937        8.5289377357
  C        11.1146951698        8.7431983971        7.9591931511
  H        10.3419531653        8.2714012660        8.5567964468
  H        10.7441002865        9.5226762330        7.2474264866
  H        11.3870986151        7.9348338397        7.3734555712
  H        20.9793065113       11.1835920523        3.4973453359
  C        21.5115525632       10.2493691889        3.5126664133
  H        20.8066726588        9.3920221028        3.6517425241
  C        22.4242028747       10.3448001475        4.7101961192
  C        22.1770284566       10.0036905805        2.1316889388
  C        21.6847118364       10.7041681084        5.9624646219
  H        22.9243608248        9.3226766918        4.7409403221
  H        23.0819018978       11.1362530770        4.5240654811
  H        22.3429760399        8.9331649183        1.9544198945
  H        23.0157050651       10.6789750772        1.9266611931
  H        21.4320201929       10.3860380193        1.4459848846
  C        21.0562108328        9.4788453786        6.7161890669
  H        22.2782606753       11.1315471334        6.8299509038
  H        20.8551811345       11.4724321754        5.8561581246
  C        20.0652750478        9.7244203984        7.8932616806
  H        21.9359065462        8.8943410470        7.0753746157
  H        20.5719908164        8.8111861589        6.0665369377
  C        18.8070365878       10.6287239240        7.6951640062
  H        20.6910038054       10.2902928111        8.6577068373
  H        19.8316812458        8.7571002532        8.2932219276
  C        17.6618301762        9.7752689500        7.1238439326
  H        18.5432582946       11.1526253512        8.5402068329
  H        19.0333320958       11.4616206519        6.9897705882
  C        16.3173640580       10.6520058967        6.9346783579
  H        17.4442162318        8.9087053204        7.7167529593
  H        17.9518764383        9.4744828867        6.0930663190
  C        16.6217055736       11.9765311126        6.2044771547
  C        15.7942197594       11.4159411553        8.1654968400
  C        15.2411475563        9.8740831667        6.1924706479
  C        16.3985650043       13.0904226218        7.0176901483
  C        17.1130637986       12.3053748854        4.9051531767
  C        15.8317540792       12.7539335029        8.1798430639
  C        15.3743043306       10.7113775120        9.3644744331
  H        15.7679173490        9.4495536241        5.3443405705
  H        14.8433419973        9.0271066395        6.7732822168
  C        13.9328126556       10.6827679699        5.9020981413
  S        16.9130730385       14.5788199690        6.2637971623
  C        17.3436273602       13.6795189572        4.8665482206
  H        17.2448686506       11.5506473459        4.1710076702
  C        15.5408531443       13.4310076936        9.3295190687
  H        15.4824371518        9.5922300932        9.2484952503
  C        15.0238413815       11.3514595422       10.5115995802
  H        14.0743785119       11.5333044215        5.3235570572
  H        13.5288710652       11.0949240261        6.8375436227
  C        13.0046558891        9.8140639062        5.1741246726
  C        17.9453059023       14.3573320029        3.6387358702
  C        15.0477724773       12.7234839259       10.4397434985
  H        15.6550792355       14.4685336258        9.4165132282
  C        14.6330600617       10.9909904377       11.7395369732
  H        12.0276760456       10.2237525098        5.3678867406
  H        12.9275443532        8.8084319831        5.5460112860
  C        13.2062124289        9.8312462139        3.6387133769
  C        18.0538132835       15.6976223845        3.4117387156
  C        18.3742554132       13.4360054685        2.5118805774
  C        14.6299619901       13.4377407096       11.6752099236
  C        14.3829844397       12.1456086689       12.4601974832
  S        14.3220013711        9.5656768536       12.6624926647
  H        13.9437451505        9.1147734818        3.4421792291
  H        13.6694884701       10.8000774886        3.3906466595
  C        11.8848545051        9.6724602725        2.8371930955
  N        17.7081824347       16.6900177783        4.3315289431
  C        18.3338391327       16.2006020209        2.1699475813
  C        18.7280030173       13.9341903477        1.2964556441
  H        18.4830250884       12.3670611583        2.6564612119
  C        13.2700089993       14.1183601918       11.6895298956
  C        15.8281283953       14.3176088612       12.3463173850
  C        13.9869345809       11.8525853882       13.8109601884
  C        13.9718402274       10.4703049308       14.0855970966
  H        11.1060346436        9.0632894987        3.3625842709
  H        11.5040511658       10.7521927638        2.9072149268
  C        12.0985145088        8.9752221587        1.5238482249
  S        17.7452514779       18.1451657066        3.6276766689
  N        18.1860813046       17.6497516393        2.1288036515
  C        18.6508412284       15.3940154578        1.0319691392
  H        19.0891249331       13.2538947928        0.5546327821
  H        13.3241203192       14.9835439945       11.0623280211
  H        13.0937379853       14.5349011799       12.7406228262
  C        12.1399102973       13.2322728560       11.2033943469
  H        16.2796117463       15.1180944646       11.7365158168
  H        15.4188591650       14.7833898622       13.2096068743
  C        17.0657168841       13.5272534329       12.7960008687
  H        13.7350571556       12.7514668407       14.4076942029
  C        13.7090327724        9.7254018433       15.4017628545
  H        11.1573136163        8.6609521727        1.0707488087
  H        12.7392351578        8.0835108362        1.6829081807
  C        12.7937130786        9.8947665131        0.5321518989
  C        18.7227126825       16.0454614715       -0.2304811831
  H        12.3809866443       12.7966851804       10.1949121958
  H        11.9275473344       12.4481512008       11.7852671937
  C        10.9810609327       14.2068145361       11.0623034202
  H        17.4886760082       12.9252045818       11.9315166157
  H        16.7687591339       12.8771079125       13.5859234688
  C        18.0844579707       14.5078850267       13.3618826193
  C        13.7202737174        8.3128569373       15.6019624806
  C        13.4860058850       10.5190092490       16.6096043554
  H        13.3900565301       10.5631586452        1.1743510493
  H        13.6418031464        9.4002356142        0.0594737344
  C        11.9787287390       10.5690835342       -0.5517313784
  H        18.4489967202       17.1161772454       -0.2151428119
  C        19.1453390400       15.6763693185       -1.4925323304
  H        11.1285798602       14.8082879768       10.1716518396
  H        10.7608601964       14.7913958775       11.9683183432
  C         9.6866769976       13.4125516678       10.8330839941
  H        18.4178337761       15.1896324982       12.6252814821
  H        17.5932083901       15.1328435381       14.0810168581
  C        19.2863677437       13.7568487953       13.9936799734
  N        14.0670862173        7.3773468165       14.6042943377
  C        13.3407797261        7.6654181877       16.7436718274
  C        13.2639269987        9.8403984832       17.8041639401
  H        13.4600857267       11.5605042267       16.6473488289
  H        10.9126200383       10.5246326496       -0.3947651288
  H        12.0169305131        9.9369834430       -1.4899033721
  H        12.2570846128       11.5740117412       -0.8392988018
  S        19.7246306157       14.1319745936       -1.9242696393
  C        19.1674495664       16.6746235610       -2.5780307868
  H         9.8662329944       12.2794037460       10.8092537992
  H         8.9314272447       13.6281240458       11.6647878387
  C         8.9667994934       13.8790610608        9.5899009139
  H        19.6921607115       12.9723952775       13.4207256130
  H        18.8610310332       13.3548452122       14.9519397659
  C        20.6299162305       14.6283156025       14.1971087726
  S        13.8527527525        5.8824460251       15.1758010489
  N        13.2744241132        6.2665911088       16.6422778085
  C        13.0544936361        8.3721005634       17.8824816438
  H        13.2660701860       10.3963816814       18.7263594547
  C        19.8435013616       14.8667516609       -3.5940764101
  N        19.6765512611       16.2002768275       -3.7152219551
  O        18.9626724447       17.8882802792       -2.4061384256
  H         8.7498298117       14.8855088802        9.7483932528
  H         9.5117707943       13.7747606378        8.6133241162
  C         7.5849427058       13.1591949238        9.4283543305
  H        21.4662346065       14.0654510125       14.4623845095
  H        20.8985211072       14.9322194607       13.2224910119
  C        20.4591546921       15.8332721881       15.1430241436
  C        12.8180651655        7.5931508537       19.0898910811
  S        20.3974838423       14.0037740956       -5.0743115904
  C        19.7040397790       17.0219213058       -4.9320435906
  H         7.7532691604       12.2345798142        8.8863837954
  H         7.1916649742       12.9215275869       10.4039154618
  C         6.4656393970       14.0348058456        8.7815816685
  H        20.6373469539       15.5191375038       16.1516444581
  H        19.4376910243       16.2173573935       15.1088842391
  C        21.4634278627       16.9235952328       14.7931054412
  H        13.2822984137        6.6126118167       19.1041235489
  C        12.3162515046        7.9382885378       20.3230013413
  H        20.5541529452       16.6752892104       -5.5689271383
  H        19.9730253254       18.0358179951       -4.6647656280
  C        18.4296502469       16.9573700366       -5.7692482149
  H         6.2535725044       13.5776478438        7.7683723729
  H         6.7861784128       15.0424315051        8.4296232191
  C         5.1493012686       14.0540664979        9.4855608657
  H        22.4071093536       16.4346567516       14.6549030864
  H        21.3274326650       17.2900702351       13.7475443149
  C        21.6717354397       17.9893936648       15.8501286849
  S        11.6727630758        9.4894907513       20.6750583185
  C        12.3045229312        6.8278688113       21.3087445165
  H        17.6083211463       17.2382989899       -5.1838953806
  H        18.4509397506       15.8874631661       -6.0794695028
  H        18.4135819434       17.5860566649       -6.6069147337
  H         4.7238985115       13.1461121048        9.8652702332
  H         5.2521433202       14.6968560813       10.3738839855
  H         4.3791756525       14.5131929733        8.8955671066
  H        20.8977813752       18.0336553905       16.6118609261
  H        22.5535363548       17.8611948198       16.4151868590
  H        21.8110856718       18.9859491480       15.4431653517
  C        11.3994194529        8.6517378882       22.2645737911
  N        11.6616709897        7.3286751448       22.3907758176
  O        12.6042003417        5.6228077803       21.1714622450
  S        10.5133291678        9.4967019047       23.5816981948
  C        11.5630346582        6.5069984461       23.5934533049
  H        11.2687322873        5.4775435724       23.3971955277
  H        10.7469214475        6.8476622587       24.2166643680
  C        12.9144424368        6.4336859152       24.3660107094
  H        12.7891625302        6.2855257040       25.3987218221
  H        13.4234870472        7.3135239643       24.2128987670
  H        13.4844195460        5.5690265073       23.9857426325
