352
 i =    83400, time =    83400.000, E =        25.0844181107
  H        10.9868849377        8.0574512330       31.1915648664
  C        11.9137427852        7.4920759194       31.4064051920
  H        12.7328035965        8.2635123950       31.4063090884
  C        12.1961742068        6.5177353472       30.2521499659
  C        11.6252316303        6.9550483197       32.7835411376
  C        10.9477981351        5.7147630845       29.8396553259
  H        12.4342176042        7.0794151285       29.3747046284
  H        13.0619453084        5.8597694415       30.3405065778
  H        11.7062411110        7.7922400434       33.5043207521
  H        10.5977824633        6.5244511163       32.9067403341
  H        12.3413611703        6.1340263243       32.9722461372
  C        10.1094068060        6.1651042390       28.6939133731
  H        10.2850082148        5.8145670748       30.7129995815
  H        11.0991481289        4.6639004556       29.7686544732
  C        10.3727731269        5.6965451631       27.3652542028
  H         9.0515440205        5.9786505140       28.9968655907
  H        10.1687204678        7.2239555707       28.6334976499
  C         9.2888561005        4.8657729478       26.8445846691
  H        11.2955229816        5.2035353930       27.2968966680
  H        10.4895016172        6.6091823809       26.7855491131
  C         8.1096943259        5.8068084209       26.3366427888
  H         9.7065984592        4.4648560213       25.9557461954
  H         8.9658738022        4.0921174747       27.5417914009
  C         7.0451555805        5.0254344471       25.5550535576
  H         7.6675143162        6.0541935236       27.2725381917
  H         8.2699001635        6.7319826673       25.8655885566
  C         6.6631978264        3.6588125643       26.2018496069
  C         7.6261025624        4.3748286577       24.3936767053
  C         5.9872130341        5.9748759178       24.9517034351
  C         7.0990083300        2.5698527002       25.4737387120
  C         6.2018126620        3.2034936717       27.4667612609
  C         7.6531308896        3.0518527224       24.2992550358
  C         8.2658648016        5.1143148147       23.3806905357
  H         5.3854695372        5.4992938458       24.1626617658
  H         6.4591187147        6.8751938241       24.4630012812
  C         5.0179955070        6.3791589016       26.0919634823
  S         6.9461967726        1.0312014190       26.1923295390
  C         6.2489767415        1.8050045184       27.5977242797
  H         5.9022297513        4.0244614557       28.1668690102
  C         8.1833716053        2.5343486981       23.1152049054
  H         8.2247958334        6.2137161819       23.3113073245
  C         8.7454166968        4.5882774427       22.2321973659
  H         4.9915921324        5.6101045462       26.8808390851
  H         5.5274298673        7.1682563703       26.5481644057
  C         3.5576664912        6.5499797852       25.6469842201
  C         6.0615935550        1.0795335861       28.8982755626
  C         8.6786753757        3.2521822628       22.0296458452
  H         8.1137225362        1.4806674362       23.0540314424
  C         9.1424081502        5.0168257138       21.0455407268
  H         3.3246629040        5.8291431049       24.9349041600
  H         3.4680557793        7.4947814159       25.1844228119
  C         2.6004561182        6.5349266707       26.8594451892
  C         6.0680216263       -0.3220143550       29.1036963239
  C         5.6286624614        1.9050578920       30.0687874880
  C         9.0168745908        2.5459246450       20.7826543304
  C         9.2825839076        3.9670439289       20.1787172120
  S         9.3958331052        6.4774503727       20.2520581018
  H         1.8472068707        7.2877972076       26.6840891151
  H         3.2195879808        6.9317195642       27.6406339821
  C         2.1128310684        5.1088688195       27.0628121794
  N         6.3217568977       -1.2901223259       28.1450013442
  C         5.8096110867       -0.8942856559       30.3371322719
  C         5.2361607687        1.3200350971       31.2710564800
  H         5.5632115139        2.9139362639       29.8856842829
  C         7.7985453540        1.7446544209       20.1872347619
  C        10.3194758187        1.6718846237       20.9190178889
  C         9.7519330485        4.3803040944       18.9451050509
  C         9.7923143885        5.7384275272       18.7934784970
  H         1.7256731947        4.8227270546       26.1587203950
  H         3.0563267534        4.5840890067       27.1648720521
  C         1.1420836774        4.9357017979       28.1495774156
  S         6.2629343723       -2.7351270923       28.8387687342
  N         5.9863972195       -2.2916404259       30.3660350324
  C         5.4302744251       -0.1444829031       31.5024939603
  H         5.0091494848        2.0483714515       32.0706410242
  H         7.7761804301        0.8700388625       20.8367342035
  H         8.0597033238        1.4093660842       19.1882266727
  C         6.3943562644        2.5230890904       20.1363959348
  H        10.5646812073        1.1845828131       19.9818391525
  H        10.1392963970        0.8994515413       21.6869117234
  C        11.5644761656        2.5596638055       21.3108366871
  H         9.9535100415        3.6664320182       18.1350460457
  C        10.2219051396        6.4346135526       17.5637573365
  H         0.8801575264        3.9411168091       28.3694221898
  H         0.2361192137        5.4626282794       27.8803244901
  C         1.7006620948        5.3549713866       29.5075149070
  C         5.2601536443       -0.8158864075       32.7770605971
  H         6.4950762301        3.5006815670       19.5958143016
  H         6.0947728644        2.7892087719       21.1365746343
  C         5.2006117648        1.6468300501       19.6754354567
  H        11.3537117447        3.2312866481       22.2123763658
  H        11.8854226793        3.1548548247       20.4809152520
  C        12.8259719452        1.7165492238       21.6660374124
  C        10.2682553812        7.8249867448       17.3710889684
  C        10.4575560804        5.6750231561       16.2739665322
  H         1.7240997451        6.4667859811       29.6204826330
  H         1.1310956920        4.9439927900       30.2657541881
  C         3.1899611892        4.9464581831       29.7174050781
  H         5.5120734768       -1.8479940620       32.8334156133
  C         4.8526523752       -0.3517096666       33.9888584556
  H         4.2948998014        2.3539258663       19.6668278109
  H         5.1017464913        0.9791556253       20.5179217641
  C         5.4246427980        0.9408456932       18.3595021360
  H        12.7544240275        1.0918918513       22.5164528898
  H        12.9827873558        1.0324549130       20.8231594571
  C        14.0557009406        2.5728102343       21.8890290784
  N         9.9791981132        8.7462091605       18.3682685009
  C        10.6944441676        8.4299639272       16.2088102460
  C        10.6569511562        6.3030283307       15.0349486852
  H        10.5249109446        4.5514128790       16.2626995497
  H         3.8216561993        5.6537886811       29.1194148870
  H         3.5836484585        5.0178100681       30.7138427579
  H         3.4015388192        3.8864702295       29.5219486362
  S         4.5108868547        1.3000999945       34.4841614504
  C         4.8390407414       -1.3225947872       35.1114111518
  H         5.9525608530        1.7171802893       17.8355109327
  H         6.0277106081        0.0589438437       18.3146151134
  C         4.0428899317        0.5153207993       17.7006252160
  H        13.7647106614        3.6292527207       22.0561872178
  H        14.5987764564        2.5375734089       20.9098462925
  C        15.0900715439        1.9792509255       22.9486192005
  S        10.2277011918       10.2304284897       17.7757415252
  N        10.7981844020        9.8193735795       16.3047451998
  C        10.7707897397        7.7661709245       14.9734143662
  H        10.8517849082        5.6330541737       14.1936599309
  C         4.3938583026        0.6938853788       36.1152168093
  N         4.7065312038       -0.6502638221       36.2892683945
  O         5.3363688440       -2.4245119060       35.0281163108
  H         4.1332401738        0.0572913784       16.7183491516
  H         3.4405763584        1.4874414312       17.5910273659
  C         3.4013467483       -0.4582342707       18.6674049431
  H        14.5102169325        1.6514315982       23.8100868901
  H        15.5188074359        1.0290519422       22.6797566542
  C        16.1956371747        3.0127409414       23.3028867617
  C        11.1244581907        8.5209086248       13.8262753817
  S         4.1259266803        1.7382780791       37.4778713749
  C         4.8296256181       -1.2709445226       37.6199443351
  H         4.1738717764       -1.1752886135       19.1043583948
  H         2.9924841260        0.1447656875       19.4887451209
  C         2.3196170072       -1.2661205575       18.0402287773
  H        15.9172274995        3.5379032870       24.2449926129
  H        16.2728240752        3.8146968530       22.5694414886
  C        17.5328895474        2.3708492068       23.5320239529
  H        10.9672023789        9.5404833970       13.8166401939
  C        11.6999055217        8.1718119558       12.6221116721
  H         4.0508051704       -0.8644723621       38.3514688910
  H         4.4775648413       -2.3449673494       37.5387857706
  C         6.2035537103       -1.1154574023       38.1744577992
  H         1.7734346665       -0.8025509172       17.2438856327
  H         1.5646450884       -1.5187381374       18.7496565023
  C         2.8889894577       -2.4680642394       17.2639896638
  H        18.0761032196        2.8211898449       24.3604769220
  H        17.3420596593        1.2736150626       23.8241877232
  C        18.4435229299        2.3579512243       22.2982943630
  S        12.0088166345        6.5839080822       12.1177083682
  C        12.0144012706        9.2334828098       11.5996904265
  H         6.9412510337       -0.7552165482       37.4869092279
  H         6.2697755612       -0.4038129243       38.9946653167
  H         6.5199455228       -1.9207010197       38.7837994476
  H         3.5410570482       -2.3179610829       16.4002644932
  H         2.0792133702       -3.2553876102       17.0924736184
  H         3.4540197544       -3.0692346150       17.9311919024
  H        18.7099514155        3.4421730662       22.0939118596
  H        17.9845529651        2.0528750223       21.3560629847
  H        19.4102225928        1.8102949782       22.3175323461
  C        12.5617046727        7.2284569239       10.5428214370
  N        12.5712738817        8.6237116057       10.5197033011
  O        11.8740850007       10.4884680578       11.7728445589
  S        13.1386565537        6.3085281730        9.2224714905
  C        12.7756000076        9.4271249768        9.3631728564
  H        13.0690369678       10.3999826265        9.7076673015
  H        13.5805323284        8.9953363582        8.7728131139
  C        11.5328498536        9.5320470645        8.4339848059
  H        10.7088228008       10.1078472078        8.8955246239
  H        11.7915759148       10.1393737371        7.6556996130
  H        11.1048230108        8.6276511286        8.0949491986
  H        20.8757525064       11.6713090577        3.1392592814
  C        21.4857089980       10.7803376616        3.0072992500
  H        20.7772138792        9.8937872386        3.0749073353
  C        22.8049581030       10.6433858914        3.8667280861
  C        21.9151302997       10.5259553953        1.5960761578
  C        22.6665415637       10.6013952007        5.3804441972
  H        23.2744373210        9.7698583340        3.3692590323
  H        23.4986146165       11.4689072394        3.5757740190
  H        22.7035695299       11.2295612548        1.2712916613
  H        21.1240829601       10.6049405954        0.8567376413
  H        22.3442949660        9.5328307909        1.4448988475
  C        21.8947972137        9.3109805445        5.8374454675
  H        23.6493595979       10.8044772639        5.8464190448
  H        22.0417597716       11.5141144806        5.6175702234
  C        20.7013635035        9.5598245031        6.8147921113
  H        22.6455510053        8.7147732293        6.3813773914
  H        21.5814921896        8.8171356095        4.9714036921
  C        19.5333438089       10.1452306133        6.1201898181
  H        21.0229569065       10.1400015343        7.6440879778
  H        20.3948146456        8.6124623517        7.3078202029
  C        18.4780053602       10.4255269171        7.2613929590
  H        19.7557018111       11.0731073484        5.6500398602
  H        18.9842184318        9.4320797644        5.4454692726
  C        17.1395139489       11.1778068317        6.9411350701
  H        18.9357497827       11.0570434403        8.0773750822
  H        18.1439918353        9.4409012595        7.6279790315
  C        17.4120846740       12.4909105782        6.2877249266
  C        16.6185068264       11.8706254520        8.1559445411
  C        16.0558924014       10.2393713779        6.2793555424
  C        17.1482819673       13.5743171136        7.1034431365
  C        17.7923167267       12.9121985655        4.9561312954
  C        16.6224104807       13.1654844231        8.3029084617
  C        16.0875221115       11.1438077143        9.2317158500
  H        16.5152839610        9.8102357843        5.3645083405
  H        15.8363701911        9.4466258844        6.9547949521
  C        14.7647848487       10.9539145147        5.9371589385
  S        17.4672410225       15.0867705789        6.2904114893
  C        17.8068339324       14.2917551008        4.8846893718
  H        18.0864612226       12.2103788015        4.2029484246
  C        16.2195478160       13.7596931876        9.4940673897
  H        15.8917987565       10.1232759798        9.1391818168
  C        15.6928732800       11.7273030897       10.4129597503
  H        14.7503365450       11.7522853472        5.1959705786
  H        14.4621791246       11.6090106902        6.7832997000
  C        13.5966528346       10.0429439217        5.4040890281
  C        18.3371005671       15.0113027451        3.6684632065
  C        15.7583529831       13.0252259545       10.6054155736
  H        16.2526501413       14.8533030792        9.5507252423
  C        15.2740759146       11.2383314939       11.6452748606
  H        12.7523994746       10.6596214816        5.4752350817
  H        13.4292372338        9.2644241441        6.0968720982
  C        13.8428008633        9.6156494721        3.9387820417
  C        18.3046051616       16.4766544695        3.3403384581
  C        18.9699887297       14.1924470507        2.6202423126
  C        15.4096978771       13.7141901338       11.8837038193
  C        15.1251047530       12.3152053250       12.5503186894
  S        15.1577641085        9.6876790431       12.4709611779
  H        13.7198332487        8.5680802313        3.8113210450
  H        14.8706481266        9.9062753592        3.6482407097
  C        12.8744431917       10.3654045036        2.9452328837
  N        17.8794120452       17.4809672002        4.3135502206
  C        18.6691394887       17.0619596576        2.1198227777
  C        19.2848232712       14.8362291950        1.4412641521
  H        19.3439788907       13.1469808372        2.7988349460
  C        14.1678717365       14.6617262709       11.7355551099
  C        16.5151502143       14.4412469462       12.6524597156
  C        14.7130846316       11.8564851269       13.8149496415
  C        14.7018492886       10.5087639056       13.9110229330
  H        11.8969186063       10.3175567056        3.2527030386
  H        13.0213813176       11.4872287662        2.8635155013
  C        12.8812427186        9.7934558555        1.5221544818
  S        18.0366727006       18.9400272451        3.5700750944
  N        18.5583983511       18.4885077927        2.0866465776
  C        19.0630401113       16.2321196449        1.0711264007
  H        19.7689942190       14.1486449300        0.7748800649
  H        14.3955852962       15.4411024396       11.0016949933
  H        13.9049875566       15.1004966889       12.6924123379
  C        12.9260436173       13.7669697034       11.3963095510
  H        16.8743098001       15.2510277375       12.0171229215
  H        16.1313460598       14.8909550788       13.5394835522
  C        17.6525319295       13.5306729950       13.0461065747
  H        14.5211248848       12.6036871879       14.5300623925
  C        14.2080064066        9.8132380407       15.1262637190
  H        11.9705572591       10.0111333932        0.9310220770
  H        13.0001259093        8.6513236699        1.5492596613
  C        13.9996927817       10.4005144939        0.5901482454
  C        19.4494473940       16.7743134531       -0.2189716647
  H        13.2260645818       13.1227500230       10.6348255618
  H        12.5597335864       13.1291885022       12.2559837376
  C        11.7330528505       14.5990380996       10.8342797848
  H        17.9613735212       12.7793269552       12.3388193822
  H        17.3179643640       12.9717765860       13.8604479403
  C        18.7809788372       14.3904144635       13.5866398855
  C        14.1464074634        8.3862736116       15.3194429417
  C        13.8471596680       10.5564391391       16.3500945355
  H        13.7887693253       11.4560774971        0.3866243252
  H        14.9725902739       10.3939049498        1.0953018449
  C        14.0931973792        9.8587541282       -0.8028761601
  H        19.3108230094       17.8763782195       -0.4218917509
  C        19.7096912025       16.2156436307       -1.4683482228
  H        12.0138685739       15.3397665144       10.1192474776
  H        11.2111741604       15.2576483157       11.5662334656
  C        10.7158064358       13.6684521486       10.1994707179
  H        19.1167066009       15.0605090387       12.8674865890
  H        18.5277600748       14.8997506895       14.4787489510
  C        19.9655097927       13.6201588394       14.0848932689
  N        14.4839107041        7.5432892788       14.2824008059
  C        13.8001206206        7.6755762996       16.4270152667
  C        13.5864851486        9.9085596745       17.5603120723
  H        14.0419746953       11.6129164937       16.4910739888
  H        15.0613126288        9.4366955285       -0.9043504279
  H        14.1692058935       10.7077010996       -1.4684089885
  H        13.3694227676        9.1171285295       -1.0987154442
  S        20.1231872439       14.5724038919       -1.6877592829
  C        19.6590445519       17.0436903699       -2.6389624936
  H        11.0240809567       13.6403094473        9.1188608758
  H        10.6936052109       12.7024042843       10.6932725267
  C         9.2940670948       14.1661838350       10.2683915781
  H        20.0191070332       12.7587661594       13.4778970384
  H        19.8431004785       13.3218727328       15.0871527938
  C        21.1770736191       14.4492940536       13.9461522547
  S        14.5356924734        6.0560935703       14.8683472479
  N        13.8839165273        6.2700750611       16.3191645568
  C        13.5513196665        8.3960958691       17.6610810745
  H        13.4842516659       10.4574553323       18.4556567528
  C        20.2414577974       14.9864814036       -3.4496878235
  N        20.0521218058       16.3381973632       -3.7152654473
  O        19.3922978683       18.2129882835       -2.7119486672
  H         9.0659273709       14.3893848446       11.2549939733
  H         9.2705267889       15.1592198786        9.8406958518
  C         8.3007041077       13.2488823757        9.5014338877
  H        21.8943277109       13.7077026061       14.3232629566
  H        21.5448069281       14.6080729788       12.9581890180
  C        21.2415385123       15.7158715064       14.8494218435
  C        13.3596004811        7.6021359361       18.8565568968
  S        20.6809482770       13.9279580555       -4.7044000543
  C        20.0758594509       16.8301791352       -5.0567884017
  H         8.6672882288       13.1688160548        8.4394293224
  H         8.1467716506       12.2426442420        9.8786863103
  C         7.0069795739       14.0126530823        9.2660909161
  H        21.2118209928       15.5277504067       15.9088589220
  H        20.4887867387       16.4473973680       14.5994223372
  C        22.5338573104       16.5480546102       14.5805624917
  H        13.6791800777        6.6135769163       18.7755047042
  C        12.8226812921        7.8484433898       20.1068990878
  H        20.8305825670       16.3327294385       -5.6231388404
  H        20.4783701803       17.8434053427       -5.0625608392
  C        18.7572547531       16.8966242225       -5.8182108208
  H         6.6132894570       13.9562748983        8.2510356347
  H         7.2071709777       15.0490746266        9.3737163987
  C         5.9717946727       13.7456425857       10.3377609800
  H        23.4144435652       15.8759818139       14.7847209041
  H        22.5099795005       16.8977218515       13.5079751582
  C        22.4848372467       17.8925330216       15.3824798824
  S        12.4042200361        9.3740669280       20.7481726489
  C        12.8266594048        6.6961428582       21.0463965461
  H        17.9840320829       16.2502401319       -5.4520161521
  H        18.9160908184       16.7950996872       -6.9015682780
  H        18.2844777233       17.9037823401       -5.6567798052
  H         5.0413087941       14.3036709515       10.2917489380
  H         5.6646458288       12.6717467372       10.2945467268
  H         6.4558091003       13.8942146962       11.2327881415
  H        23.3773498820       18.1707915879       15.9874819562
  H        22.4033492643       18.7033516094       14.7071839607
  H        21.6243164219       17.9415768607       16.0119026204
  C        12.1146069693        8.5097794402       22.1895100044
  N        12.2840109145        7.1437916279       22.2058415881
  O        13.0913914066        5.5465879535       20.6779127981
  S        11.5231325126        9.3146728468       23.7330176561
  C        12.0311396538        6.2648151953       23.3655070777
  H        12.1252288215        5.2152431537       23.1168065117
  H        10.9925680160        6.5318904095       23.5973747814
  C        13.0195445562        6.5055085297       24.5104615567
  H        12.4462398842        6.8377594516       25.3798027174
  H        13.7897016109        7.2852403019       24.3322708318
  H        13.6446887760        5.6874003386       24.6551576676
