352
 i =    16400, time =    16400.000, E =        24.2601700587
  H        12.1171552003        6.4856541813       32.4501907154
  C        11.7270741416        5.4875572815       32.3380526646
  H        12.5548554981        4.8469359889       32.0973790697
  C        10.8438502205        5.5142005857       31.0970025781
  C        10.8500836193        5.0904503401       33.5640951932
  C        11.5006848856        5.2986272863       29.7802779657
  H         9.9859045661        4.8774751636       31.1262953621
  H        10.3240970285        6.4758486248       31.1730060975
  H        10.8640688562        4.0402584947       33.7682024607
  H        11.2771924663        5.5377173367       34.4333326986
  H         9.8635091257        5.4672689355       33.4357237341
  C        10.4792437936        5.1110263383       28.6948942054
  H        12.2653516848        4.5575676440       29.8545562581
  H        11.9549615082        6.2811603415       29.6156859057
  C        10.9686107689        5.3224547155       27.3181888713
  H        10.1685527255        4.0847527113       28.7071396205
  H         9.6920214019        5.8570625806       28.9366489828
  C         9.9838165777        4.7608881097       26.2899783429
  H        11.9119526398        4.8905625571       26.9646467007
  H        11.1804348584        6.3514320620       27.2163215626
  C         8.6617514996        5.5522914954       26.1549815152
  H        10.5587206339        4.4679856306       25.4173478087
  H         9.6915971454        3.7438390958       26.7188898358
  C         7.5551604700        4.7916417842       25.3808365081
  H         8.3086423456        5.8087966892       27.1504713194
  H         8.8648851070        6.5210557184       25.7600020883
  C         7.2988084156        3.4839797070       26.0526442768
  C         7.8443839442        4.2068342873       24.0621772545
  C         6.1915344299        5.5035384630       25.4423120265
  C         7.4682871786        2.4368733685       25.1517228972
  C         6.7454362888        3.0839720184       27.2473813678
  C         7.8553300048        2.8379198915       23.9170742937
  C         8.2649970112        4.9113658879       22.9665320232
  H         6.4218150074        6.5226176234       25.0714232533
  H         6.0443349154        5.5706874806       26.4957508337
  C         5.0819309776        4.8193669846       24.7275712873
  S         7.0816088755        0.8726589660       25.8994212763
  C         6.7196822066        1.7087136217       27.3951330103
  H         6.4809333304        3.7627503981       27.9804025960
  C         8.2001949942        2.2503113198       22.7018711693
  H         8.3105516017        5.9611512892       23.0695503147
  C         8.4600028181        4.3140623234       21.7208303010
  H         5.4589411143        4.7172187177       23.7439434212
  H         4.8526213972        3.7637591551       25.0797342210
  C         3.7938463762        5.6814285241       24.5150548066
  C         6.3184575422        1.0167572786       28.6922824438
  C         8.4669144975        2.9780124383       21.5208854991
  H         8.3457087190        1.1738158724       22.6248384252
  C         8.7733262842        4.8045975369       20.4666008378
  H         3.1697933066        5.1713413505       23.7676545435
  H         4.2061456701        6.5802080874       24.0661948956
  C         3.0242468977        5.9826132693       25.7653004471
  C         6.2171173703       -0.3753478441       28.9558367926
  C         5.9027555034        1.8947808156       29.8604378174
  C         8.8443482008        2.3900964920       20.1800691838
  C         8.9942998683        3.7962549551       19.5537299191
  S         9.0942704574        6.3740700404       19.8716342526
  H         2.2414918561        6.6897388754       25.6267554259
  H         3.7016873179        6.3173285423       26.5642881751
  C         2.3071012282        4.7356826027       26.1673932406
  N         6.4663316472       -1.2890793702       27.9671685295
  C         5.8565285822       -0.9443200129       30.1384915302
  C         5.5236145224        1.3565308381       31.1383425204
  H         5.7903961159        2.9530866641       29.7954013640
  C         7.7609908322        1.5061592974       19.4220870007
  C        10.1919117218        1.6889170296       20.3527706160
  C         9.3875843387        4.3083422799       18.3364678389
  C         9.5723080023        5.6877817121       18.3878805416
  H         1.6853087996        4.3349729470       25.4073926254
  H         3.0653996613        4.0239281140       26.2855772990
  C         1.4473167487        4.8730066763       27.4911831354
  S         6.3585341788       -2.8006474500       28.5453480395
  N         5.7630402037       -2.3324498032       29.9808338578
  C         5.4611912537       -0.1444097488       31.2828373936
  H         5.1200620852        2.1022698994       31.8268948831
  H         7.4290130109        0.6760663144       20.0632868762
  H         8.2069097162        1.0162815850       18.5034968333
  C         6.5814512845        2.3838601921       18.9074900544
  H        10.4589246959        1.2661300849       19.3806270616
  H        10.1767301222        0.9163112540       21.1160979190
  C        11.3911299425        2.6180800686       20.6497291396
  H         9.5623688756        3.6438439707       17.5679714612
  C         9.9641543845        6.5530979315       17.2602217616
  H         1.0399980467        4.0240391475       27.8637443432
  H         0.5839669297        5.5738237350       27.3999909036
  C         2.3162723608        5.3983468973       28.5617637505
  C         5.0162352976       -0.8109502356       32.4699720119
  H         6.9970275716        3.2082438487       18.3250229809
  H         6.0003205847        2.7620436548       19.8016843837
  C         5.7066012647        1.5704739707       17.8963326735
  H        11.2124189349        3.3445171037       21.4879206792
  H        11.5184712218        3.2585770263       19.7987117532
  C        12.5903525693        1.7649096457       20.8288670648
  C         9.9723899032        7.9134740084       17.1926011400
  C        10.3593020058        5.8670105753       15.9480183865
  H         3.2396057301        4.9229193600       28.6529725963
  H         2.5440495427        6.4352531221       28.2868792941
  C         1.7836823324        5.3121872326       29.9223831486
  H         4.9741985612       -1.8532716111       32.3126323813
  C         4.7880681574       -0.4476766750       33.8021651288
  H         5.3990970014        0.6879943360       18.3741859885
  H         6.2253813423        1.3921396596       16.9808209837
  C         4.5201096572        2.3891374390       17.5239789396
  H        12.4132332166        1.0746505816       21.6118159398
  H        12.6545695739        1.0503693219       19.9918679227
  C        13.8570606395        2.6507187904       20.9496773380
  N         9.6926866768        8.7351320566       18.3256338618
  C        10.2784742785        8.6613606735       16.0465508789
  C        10.6427288514        6.6144477208       14.8239375487
  H        10.3698400521        4.8349094023       15.9535975504
  H         1.4618008143        6.2409672416       30.3375742099
  H         1.0534370485        4.5678315420       30.0809968997
  H         2.6107771206        5.1480393691       30.6766170556
  S         4.4684576478        1.1614537861       34.4559932332
  C         4.7861880168       -1.5220868010       34.7878080191
  H         4.5644971805        3.2064192807       18.2165302629
  H         4.4773573445        2.7846660789       16.4476323882
  C         3.1348463531        1.6876024899       17.9387641630
  H        13.7884555989        3.6837366233       20.4320052143
  H        14.6946792673        2.1082847275       20.5487437232
  C        14.1290982329        2.8369685751       22.4420304948
  S         9.7005092550       10.3037770743       17.8232112210
  N        10.1698531863       10.0911586149       16.2698182370
  C        10.6813405227        8.0641589528       14.8116089151
  H        10.9585618072        6.1161654072       13.9145810514
  C         4.1753566500        0.2923638555       36.0024220533
  N         4.4574779012       -1.0178591238       36.0220313935
  O         5.0326339611       -2.7050653053       34.5400721916
  H         2.3375614828        2.4045485741       17.8510733901
  H         3.1129400078        1.4232230793       18.9583462806
  C         2.9082741575        0.5209700871       16.9521254084
  H        14.5231737540        3.8177661013       22.7056025312
  H        13.1395512985        2.7694417969       22.9656473193
  C        14.9449546079        1.6502038899       23.0544497421
  C        10.8714068062        8.9505986702       13.6704258224
  S         3.8804940627        1.1203251193       37.5245905904
  C         4.6146456651       -1.7759367809       37.2840737496
  H         2.2044744375        0.8306984974       16.1710956841
  H         3.7432519414        0.2647119880       16.3283430977
  C         2.2573530761       -0.7274105901       17.6633553065
  H        14.9736308326        0.8497860923       22.3135967745
  H        14.3270529007        1.0993315775       23.7645610648
  C        16.3776959691        1.9581836102       23.5539834234
  H        10.6049012780        9.9753871767       13.8658152633
  C        11.4834364655        8.7343509837       12.4151516686
  H         3.8868854646       -1.3746782770       38.0135530156
  H         4.2548071283       -2.8149769046       37.1498971353
  C         6.0048230454       -1.6820581520       37.8448747647
  H         1.2717968449       -0.4721238663       18.0877402524
  H         2.9791143425       -0.9062659282       18.5005603825
  C         2.2160678547       -2.0052245555       16.7989441168
  H        16.2392220962        2.6379746313       24.3464382005
  H        16.8237875935        1.0035888930       24.0163454964
  C        17.2668777703        2.4967073448       22.4735109466
  S        12.0645658811        7.1998872138       11.8810343065
  C        11.6327257432        9.8409697858       11.4602941303
  H         6.6695226661       -1.4747527278       36.9952415758
  H         6.2331674592       -1.0559511416       38.7290790474
  H         6.3094699026       -2.7178471181       38.0284821923
  H         1.3416623083       -2.5758417012       16.9299808443
  H         3.1299906450       -2.5807318028       17.0992283014
  H         2.2633189464       -1.6396826946       15.7664969934
  H        18.0519418231        2.9634635590       22.9785118387
  H        16.8306759694        3.2598334077       21.8414951913
  H        17.6122132029        1.7067950991       21.8613526811
  C        12.4883471669        8.0373549207       10.3706022923
  N        12.2336146506        9.3716871583       10.3365872308
  O        11.1231304327       10.9441376322       11.5619247651
  S        13.2559017923        7.3397755595        8.9477208817
  C        12.3788379522       10.1801788698        9.0920311750
  H        12.4281120854       11.2199103011        9.3999769944
  H        13.2688034818       10.0579595461        8.4837317166
  C        11.0791950530       10.0808284139        8.2050716613
  H        10.2435507435       10.4470585751        8.7782910483
  H        11.0999990344       10.6137192848        7.2712249187
  H        10.6841765992        9.0429753950        7.9543410173
  H        21.2435518645       11.4405195797        3.1425897508
  C        21.9773418013       10.6961586310        3.6062078797
  H        21.4300724127        9.7514426190        3.5903388320
  C        22.3864612052       11.1716382442        5.0180199932
  C        23.1032791144       10.7915259360        2.6926891107
  C        21.1751837676       11.2762664909        5.9039998215
  H        22.9583764481       10.3756543188        5.4385204458
  H        23.0058056757       12.0845786358        4.9442532528
  H        22.8587842393       11.2221169484        1.6678156882
  H        23.5421638535        9.7758269893        2.5683835203
  H        23.8096892469       11.4197333289        3.1669806216
  C        21.0851035238        9.9588256705        6.7250741572
  H        21.4327914529       12.0045387744        6.6575038158
  H        20.2770687322       11.5092895209        5.4269568424
  C        20.2324900344       10.0711899872        7.9394437849
  H        22.0687457094        9.6691318616        7.1135192974
  H        20.7119904825        9.1366184633        6.1315695915
  C        18.9426337594       10.8662995663        7.6960530601
  H        20.8277227792       10.5300583782        8.7290887714
  H        19.8711816397        9.0833603599        8.2747692817
  C        17.8184104049       10.1845079994        7.0140330706
  H        18.5027993175       10.9609921393        8.6556821594
  H        19.1503420429       11.8691911254        7.2331546419
  C        16.5769310312       11.0631601050        6.8926989184
  H        17.6484274578        9.3780736400        7.7363183495
  H        18.0562547376        9.7176257835        6.1090893307
  C        16.9216261071       12.3894135608        6.2552188600
  C        16.0779055637       11.8303686348        8.0737559996
  C        15.3881933692       10.3019924245        6.2339886049
  C        16.6327619621       13.5158024522        6.9859559945
  C        17.4746483299       12.8495461684        5.0613680738
  C        16.1710049197       13.1782634974        8.2206019441
  C        15.5591724176       11.1601135345        9.1833094977
  H        15.8181231137        9.8962888977        5.3449329305
  H        15.1635255692        9.4176301505        6.9156766123
  C        14.1557228196       11.2164121760        5.9827255066
  S        17.0152229097       15.0547283544        6.3751252005
  C        17.5273443488       14.2203550908        4.9295647880
  H        17.7035737129       12.0915382942        4.3363922636
  C        15.7675803150       13.8191735874        9.4079569973
  H        15.4201246167       10.0901259858        9.1529361147
  C        15.1936517658       11.7380090691       10.3366544580
  H        14.5652170443       12.1936888340        5.7220867284
  H        13.5792804378       11.3658408581        6.9015336932
  C        13.1859106084       10.5133060459        5.0183050910
  C        17.9733731362       14.9761783902        3.6926727580
  C        15.2077916744       13.0877539423       10.4685331143
  H        15.6243291874       14.9203979677        9.3751326616
  C        14.8350636755       11.3244530614       11.6172237804
  H        12.1686195168       10.8664268889        5.0518292229
  H        13.3066071556        9.3866750914        5.2086275969
  C        13.5487863957       10.8753569933        3.5952136798
  C        17.9335961016       16.3298017491        3.4490812341
  C        18.4019553009       14.1905306109        2.5444411643
  C        14.7778380231       13.6969815142       11.7298718472
  C        14.5511584528       12.3640529513       12.4465552328
  S        14.7082614066        9.7880890188       12.4653859235
  H        14.2873876912       11.5711208078        3.4500530462
  H        12.6484513735       11.4038021153        3.2967205983
  C        13.8540992992        9.6434808115        2.7203429964
  N        17.5186126327       17.3092969081        4.3766245398
  C        18.2375280855       16.9311399345        2.2422638411
  C        18.8720765396       14.7443048642        1.3256695621
  H        18.4006458212       13.1778200298        2.6429261976
  C        13.6060197907       14.6410652781       11.6466258497
  C        15.9037279587       14.4359064467       12.5233217037
  C        14.1737112037       11.9682807007       13.7685567951
  C        14.2506278028       10.5641882699       13.9444576496
  H        14.6637286554        9.0662594959        3.1418834436
  H        12.8820101998        9.0647364257        2.7337356994
  C        14.2324432246       10.0668494799        1.2796595446
  S        17.6244142016       18.7652628963        3.7310108772
  N        18.1010575455       18.2888145418        2.2264235878
  C        18.5473102964       16.1784010526        1.0684544184
  H        19.1746585999       14.0575034830        0.5679074470
  H        13.7765458132       15.4318687552       10.9883285273
  H        13.5167778012       15.2016048981       12.5860041918
  C        12.2816523074       13.9516754295       11.3507144363
  H        16.1429010110       15.3438142955       12.0738325353
  H        15.5488443354       14.4837913533       13.5074553485
  C        17.2277115087       13.6328040856       12.6518789750
  H        13.9233113642       12.6737350408       14.4920248924
  C        13.9586517124        9.7256986995       15.1700712165
  H        15.0779953566        9.4977027813        0.9840660459
  H        14.6216095599       11.1113908805        1.3506266414
  C        13.1199301689       10.1448132079        0.2051848521
  C        18.6400724029       16.8714214615       -0.2283235557
  H        12.3794656895       13.4864743813       10.3314001354
  H        12.2089576046       13.2766245221       12.1697711470
  C        11.0729587316       14.9322184078       11.3438341089
  H        17.7429973821       13.3353545708       11.7656529816
  H        17.0147483701       12.6859800994       13.1089446587
  C        18.2284249335       14.4705517061       13.4988165597
  C        13.9388875428        8.3017319247       15.3265334821
  C        13.7326966687       10.5203588863       16.3963709194
  H        12.4095485882        9.3262757955        0.3419614172
  H        12.5722988735       11.0863878073        0.3552234500
  C        13.5717883643       10.1352014897       -1.2104189137
  H        18.5743323428       17.9566600575       -0.1344884458
  C        19.0260790342       16.4288549274       -1.4710835698
  H        11.4046369370       15.6388635172       10.5519504500
  H        10.9187942901       15.4653623992       12.2881303966
  C         9.7271936110       14.1498839015       11.1263891568
  H        18.5427725973       15.3029575483       12.8531345222
  H        17.6446400124       14.8211900162       14.3001708743
  C        19.4132334219       13.7223590961       14.0656232501
  N        14.3144586760        7.4116880523       14.3497317865
  C        13.5335793736        7.6850298735       16.5117100865
  C        13.4225080503        9.8511553097       17.5782453433
  H        13.7633017334       11.6356273285       16.4357774704
  H        12.9052238111        9.5460418448       -1.8657971292
  H        14.5785806750        9.7466378424       -1.3354999213
  H        13.5620194040       11.0891949806       -1.8079521794
  S        19.2588702286       14.7709157486       -2.0159083097
  C        19.1169762062       17.5016038834       -2.4366766448
  H         9.6079680761       13.3823720954       11.9081757572
  H         8.9708754939       14.9206337033       11.1854495583
  C         9.7459249980       13.5895074805        9.6961494354
  H        20.0384209055       13.3123464422       13.2843477566
  H        19.0963872272       12.8753982040       14.6671957117
  C        20.3240946071       14.6018280226       14.8982603553
  S        14.0999871911        5.9125285127       14.9032384831
  N        13.5683005523        6.3074954785       16.3854715889
  C        13.3211965649        8.3786893507       17.7094981947
  H        13.1463308105       10.4261355405       18.4142268093
  C        19.6021430919       15.5278291980       -3.5356622568
  N        19.4624950912       16.8485051720       -3.5774753111
  O        18.8526515480       18.7068361199       -2.2650576325
  H         9.9236372223       14.3968132409        8.9865642578
  H        10.5487580181       12.8538487992        9.5706534977
  C         8.4282839108       12.9670084223        9.2544248639
  H        19.7332696790       15.3412474180       15.5098446520
  H        20.8942083033       14.0077044583       15.6687138108
  C        21.4106668909       15.4792785561       14.2312691726
  C        12.9475667788        7.6175809111       18.9029825389
  S        20.2478561360       14.7076127981       -4.9620226860
  C        19.5961206444       17.6567253191       -4.8131123189
  H         8.6920744990       12.3613100936        8.3755039077
  H         7.9825731566       12.3111295859        9.9894775664
  C         7.2710975557       13.8969625316        8.8513822756
  H        21.1178907970       15.7620080267       13.2781287277
  H        22.2315539431       14.8641195836       13.9419735271
  C        21.7417687543       16.7418967959       15.0516765771
  H        13.1824962117        6.5361582353       18.7952410420
  C        12.3642479715        7.9091654037       20.0890762714
  H        20.3893302228       17.3349721098       -5.4080364321
  H        19.9685284295       18.6956624502       -4.5595429290
  C        18.3492567969       17.8796196162       -5.6521556874
  H         6.8410004664       13.4977940102        7.9345341543
  H         7.7177014454       14.9155143689        8.6450129997
  C         6.1886063380       13.8148499959       10.0039851106
  H        21.7611768666       16.5843675891       16.1661882865
  H        22.7276017224       17.0053408968       14.7628264236
  C        20.7803018124       17.9693966926       14.8981858429
  S        11.8442136342        9.4903987333       20.5093060266
  C        12.2094843231        6.8931712811       21.1553497942
  H        17.5483298747       17.5395393744       -5.0039875452
  H        18.3945420142       17.3302086843       -6.5721407285
  H        18.3341000956       19.0054021473       -5.8051277135
  H         5.9272800100       12.6973868861        9.9028930456
  H         6.4807937381       14.1949904694       10.9930872354
  H         5.3236855212       14.3495665147        9.7179270362
  H        21.2503996988       18.8048627909       15.4386662010
  H        20.6173681761       18.3380081299       13.9099715295
  H        19.7888757751       17.8346043460       15.3278303201
  C        11.4245609672        8.7763544424       22.0999023487
  N        11.7140253152        7.4596377996       22.2510340921
  O        12.4900612070        5.6982427428       20.9942790516
  S        11.0786656935        9.7857210418       23.5533358728
  C        11.5354669965        6.7277699184       23.4682199397
  H        11.4991892398        5.6515594115       23.2311511789
  H        10.5623105559        7.1020385533       23.7543243812
  C        12.7016074139        7.0578775628       24.3860300221
  H        12.9286307862        8.1394179148       24.3350018206
  H        13.4311013611        6.4734629586       24.0198287883
  H        12.4527871861        6.8591618190       25.4060574113
