352
 i =    11600, time =    11600.000, E =        25.4216412861
  H        12.4115079285        6.8921978625       31.9394643761
  C        12.0233660017        5.8434835447       31.8873204609
  H        12.8854049026        5.2756500367       31.6260587738
  C        10.8252503248        5.5814235722       30.9105496709
  C        11.5328253342        5.4420327746       33.3177570881
  C        11.1891237039        6.0875553187       29.5198329945
  H        10.6838668217        4.4643956451       30.8669066915
  H         9.9245117693        6.1059334747       31.2264830695
  H        11.1844481833        6.2743118205       33.9550909582
  H        10.8493395338        4.5741857970       33.3035100319
  H        12.4987488274        5.0159223688       33.6352575154
  C        10.5466900044        5.0628269620       28.5334037284
  H        12.2520330357        6.1566326251       29.3823466322
  H        10.7589722029        7.0625084683       29.4244314881
  C        10.9060890850        5.3456044091       27.0797932223
  H        10.8445955218        4.0153437993       28.6175213686
  H         9.4968645850        5.2448440089       28.6259965268
  C         9.8815765176        4.8059886010       26.1990633796
  H        11.8551528580        4.8910636442       26.8761392254
  H        11.0625270173        6.3874430194       26.8233644932
  C         8.5882183808        5.6806909410       25.9601000017
  H        10.2711443192        4.5220918596       25.1629097999
  H         9.6655027541        3.8269182458       26.6559938948
  C         7.3850033476        4.9459433555       25.3364909901
  H         8.2876556671        6.0742788303       26.9477515847
  H         8.7717183253        6.6039261327       25.3610060688
  C         7.0809606799        3.6535570159       26.0452685408
  C         7.7573438435        4.2509649192       24.1243768640
  C         6.1094401106        5.7889736500       25.1231372695
  C         7.2671012303        2.5306677921       25.2629311535
  C         6.7561583095        3.3196757929       27.3779392082
  C         7.7298784375        2.9018387784       24.0637650875
  C         8.1689654838        4.9421283097       23.0127468220
  H         6.3347022377        6.5552199608       24.3847395975
  H         5.8662148941        6.3049514555       26.0152397806
  C         4.7848854402        5.0764955425       24.7143856092
  S         6.8830433953        1.0443307118       26.0235826686
  C         6.5401166241        1.9561712266       27.5323698140
  H         6.5689081526        4.0861570823       28.1197071158
  C         8.0405142853        2.3182813999       22.8595581592
  H         8.4987331864        6.0226408608       23.0204890470
  C         8.5027037044        4.3366293274       21.8180935003
  H         4.8077075011        4.7950785901       23.6903116162
  H         4.6341438575        4.1257338875       25.2304830965
  C         3.5363678469        6.0507079051       24.9121989034
  C         6.1388745586        1.2973236665       28.8325439459
  C         8.4819361441        2.9833382891       21.6672592851
  H         7.9621522188        1.2960315856       22.7872945153
  C         8.9053649972        4.7987720549       20.5913587435
  H         2.7363723731        5.9074051496       24.2063860127
  H         3.9911669681        7.0667572294       24.6108466152
  C         2.9466740910        6.2738417239       26.2682114032
  C         6.1494673284       -0.0268566496       29.0811930814
  C         5.6814874557        2.1668824740       29.9148532025
  C         9.0507125345        2.3310196590       20.4406218672
  C         9.2794334649        3.7574069477       19.8101524355
  S         9.2578105469        6.3222914019       19.8068805208
  H         2.4308572896        7.2225801844       26.4886961801
  H         3.8369185558        6.3220954319       26.9658631162
  C         2.2097534891        4.9982386765       26.7144998332
  N         6.4502002421       -1.1133017529       28.2020769340
  C         5.6947295374       -0.4848917940       30.2833899944
  C         5.3957006928        1.7201884046       31.1577106714
  H         5.6370929940        3.1758679401       29.7793125514
  C         7.9946965906        1.5481916759       19.5863768937
  C        10.3945645850        1.6340987297       20.5971348905
  C         9.6392258214        4.1847040741       18.4724538015
  C         9.5805627034        5.5138808831       18.3245589074
  H         1.6171809956        4.5775246902       25.8665688546
  H         2.9887506448        4.3484666885       27.0242806864
  C         1.3452524368        5.1937370556       28.0036736105
  S         6.2334815344       -2.5280964923       28.9322508814
  N         5.6185402979       -1.9067629112       30.2764497958
  C         5.3205426547        0.2020056365       31.3961964230
  H         5.1310332356        2.4472535844       31.8802656156
  H         7.7902211321        0.6775426647       20.2196723247
  H         8.5074535368        1.1863475513       18.6973295267
  C         6.6972771554        2.1928613929       19.3580239722
  H        10.7209783257        1.4144652258       19.6092715177
  H        10.2066997910        0.6615374947       21.1249408504
  C        11.4173432382        2.3770920738       21.3964475632
  H         9.9603747358        3.4899339221       17.7521451453
  C         9.9319130429        6.2304921728       17.0639730234
  H         0.7161148334        4.3732185163       28.0652888082
  H         0.6749213109        6.0474142435       27.8472911345
  C         2.2086274856        5.5469305093       29.2599120317
  C         5.0060315588       -0.4933437568       32.5993221313
  H         6.7340798355        2.9318127226       18.5937677435
  H         6.4428003210        2.7096468334       20.2921079366
  C         5.7413607068        1.1139753575       18.9191188231
  H        10.9951483457        2.6854423642       22.3197672521
  H        11.6836163625        3.4019342913       20.9642446497
  C        12.6810439836        1.5880336474       21.7677435188
  C        10.1648586073        7.6277488654       16.9163647874
  C        10.0178395428        5.4531405191       15.7877226393
  H         2.7628437223        4.5764838596       29.3665859872
  H         2.8483657560        6.3466283323       29.1022438479
  C         1.3530960266        5.7663262621       30.4988837076
  H         5.3747219910       -1.4882034091       32.5986064124
  C         4.7767208777       -0.0539553151       33.8736552455
  H         5.7701444077        0.3646691436       19.7023995654
  H         6.0151137577        0.6683910340       17.9422805015
  C         4.3180538728        1.6115460084       18.6970749587
  H        12.7070618462        1.5088448804       22.8674484222
  H        12.5348553087        0.5925907895       21.2566893291
  C        13.9181277543        2.1241730911       21.1693129113
  N         9.9759269417        8.5800244416       17.8411662413
  C        10.4896206256        8.2289051068       15.7441295437
  C        10.3912019327        6.0931833489       14.5325948486
  H         9.9370482962        4.3945717844       15.7916409571
  H         0.8819803930        6.6897605096       30.2226935523
  H         0.6377033166        4.9096391801       30.6364777271
  H         2.0311318328        6.0091884709       31.3547974751
  S         4.5279785363        1.5855373836       34.2835939663
  C         4.7831150841       -1.0212693459       35.0314078026
  H         3.9237840929        2.0683506760       19.5473809580
  H         4.1310465295        2.2943200180       17.9314777562
  C         3.3727288232        0.4631115508       18.5138078573
  H        13.7601451594        2.9056486720       20.4459764167
  H        14.2908058107        1.3542501262       20.5271658758
  C        15.0982877681        2.5195698128       22.1136993931
  S        10.3009518857       10.1171186345       17.2616511556
  N        10.5478692857        9.6486901702       15.7635752877
  C        10.6573967489        7.5449479527       14.5329800522
  H        10.3727626833        5.5546122628       13.6244026494
  C         4.2129662057        0.9840116651       35.9532364152
  N         4.3550861599       -0.3635667003       36.1320177960
  O         5.0855453670       -2.2176928221       34.9377672842
  H         2.4599137235        0.5953960226       19.2196352634
  H         3.9660559312       -0.3957365922       18.9644165706
  C         2.9245924065        0.1898479830       17.1443799678
  H        15.9207670851        2.9612823029       21.4666745316
  H        14.8705937347        3.3774177310       22.6695295811
  C        15.6733975436        1.3509131835       22.9370072386
  C        10.9300961871        8.3710008140       13.3428057803
  S         3.8585672086        1.9184063462       37.4001443972
  C         4.3201963590       -1.1015286051       37.3957660230
  H         2.0241212440        0.7174568837       16.8403555326
  H         3.7954498947        0.4680685627       16.5206655448
  C         2.9781985343       -1.2569324397       16.7749755040
  H        15.9420819933        0.5045965369       22.2481049686
  H        15.0102177580        1.0040155661       23.7414299548
  C        16.8626892254        1.7687132531       23.7406744684
  H        10.8475973443        9.4374511992       13.3568311674
  C        11.3861480265        8.0379832781       12.1029126114
  H         3.6339331301       -0.7568346688       38.1744228403
  H         4.0654654821       -2.1646439167       37.1987906745
  C         5.6389983519       -1.0671957839       38.1321315537
  H         3.9219897133       -1.7163837622       17.0213441841
  H         2.8424708032       -1.3133555426       15.6611744501
  C         1.8875252577       -2.0487343500       17.4388011585
  H        16.6901197432        2.5814317214       24.3825825820
  H        17.1213483502        0.9326261863       24.3430177058
  C        18.1023471542        1.9871061546       22.8634753384
  S        11.8526566067        6.4317199393       11.5493249488
  C        11.3957186263        9.0929885223       11.0956902396
  H         5.8333363492       -2.0447625790       38.4416842615
  H         6.4945205965       -0.9035809453       37.4444832624
  H         5.7892479917       -0.4033679816       39.0058179431
  H         1.8775480399       -2.9712076486       16.8463549015
  H         0.9529965435       -1.5330051299       17.3668176708
  H         2.2644316702       -2.2643740332       18.3704259262
  H        19.0192270529        1.8935987283       23.5367294006
  H        18.0952770572        2.9756714542       22.2962684139
  H        18.1839009699        1.2095266615       22.1452441378
  C        12.3711202878        7.2883466317       10.0874093422
  N        12.0756550551        8.5759907955       10.0271624722
  O        11.1486722313       10.2930954101       11.2637759185
  S        13.2840886586        6.6390187649        8.6942852497
  C        12.2914592638        9.4268197014        8.8967268376
  H        12.3695126669       10.4651462628        9.1181313613
  H        13.2718640726        9.1750920814        8.5316815243
  C        11.0697393490        9.1754512706        7.9529889323
  H        11.0650782111        8.0946161981        7.7040940342
  H        10.1901521352        9.4315671481        8.4220686013
  H        11.1776494068        9.6720423074        6.9594568837
  H        20.9029992681       11.5904621268        3.8634708212
  C        21.5184914298       10.7453202155        3.7629232945
  H        20.7702782193        9.9162574864        3.8608320761
  C        22.5173196170       10.9118680444        4.9030219521
  C        22.0922533033       10.6564118856        2.3733067969
  C        21.9976686278       10.8544728225        6.3121296135
  H        23.4112023234       10.2549815481        4.8005324444
  H        22.9083845546       11.9455121784        4.7756672348
  H        23.0034207371       11.2519608498        2.1051687006
  H        21.3952161931       10.6864464590        1.6340242591
  H        22.3021251419        9.5891865107        2.2626685753
  C        21.2414335523        9.6043966106        6.6964162105
  H        22.8224288556       10.8813013121        6.9744986158
  H        21.5248334757       11.7861122325        6.4767721665
  C        20.5141359551        9.7441460452        8.0129811792
  H        21.9189329244        8.7080226921        6.8020875998
  H        20.5026107095        9.4131926889        5.9602495151
  C        19.2850677718       10.6497515518        7.7993574557
  H        21.1385470086       10.2073799307        8.8021590417
  H        20.2546466380        8.7715675345        8.3935682719
  C        18.0956678541        9.9493685488        7.0956556288
  H        18.9280426762       10.8953285577        8.8001299310
  H        19.5328825950       11.4673613789        7.2383877325
  C        16.9127267139       10.8149716493        6.8529455086
  H        17.7794579612        8.9855341944        7.5811537569
  H        18.4792088047        9.5727951064        6.1828518582
  C        17.2287747284       12.2098554879        6.2808802968
  C        16.4850203623       11.5159227309        8.1382353980
  C        15.8627330462       10.1076185060        6.0635665845
  C        16.9105908109       13.3200448072        6.9919458208
  C        17.7197605217       12.5337797754        4.9898158670
  C        16.4049977499       12.8684683107        8.2058772456
  C        15.9197546872       10.7882045578        9.2619206394
  H        16.2229816425        9.4668687391        5.2196275411
  H        15.3949024075        9.3085753557        6.6189738996
  C        14.6923650454       11.0608671936        5.7715469486
  S        17.0405242216       14.8295673635        6.1791790403
  C        17.6639585057       13.9335569474        4.7945829299
  H        17.9623624730       11.7061858437        4.3382197121
  C        15.8823461400       13.4609166495        9.3129991635
  H        15.7787366572        9.7460892559        9.1829027153
  C        15.4681890306       11.4070537418       10.3995064982
  H        15.0237348266       11.9557139947        5.5326876788
  H        14.0357231214       11.3860812560        6.6212649306
  C        13.6814417306       10.5431528409        4.7376067883
  C        17.9584385498       14.6038996866        3.5119901783
  C        15.3577167652       12.7668915560       10.4349874139
  H        15.8530741074       14.4996961181        9.5380771679
  C        14.9540997156       11.0891867486       11.6270764415
  H        12.9400243929       11.3160729079        4.4556702150
  H        13.1531982434        9.5822050008        5.0287598364
  C        14.3121213061       10.2540655870        3.4087927919
  C        18.0051689819       16.0122531106        3.2869815398
  C        18.3666119879       13.7917947093        2.3588081089
  C        14.8601326032       13.5088444514       11.6453578619
  C        14.6441839965       12.1651172267       12.4078817503
  S        14.5966032082        9.5878776320       12.3708049229
  H        14.8258166863        9.3012625472        3.2826818767
  H        15.0046389747       11.0622277771        3.1936005083
  C        13.2199839315       10.0019012832        2.3834036064
  N        17.6307898236       16.9761418250        4.2097350546
  C        18.2106210686       16.5769169710        2.0576667557
  C        18.6767273753       14.3949555276        1.1165113549
  H        18.5396282186       12.7191195163        2.4977668017
  C        13.6202619970       14.3497616835       11.4300525364
  C        15.9650168982       14.3655634927       12.2812594047
  C        14.2228700966       11.7399489141       13.6830280909
  C        14.2528957025       10.3683126677       13.8900170220
  H        12.5134088562        9.2418499385        2.6433326987
  H        12.5364324735       10.8430439465        2.3715193792
  C        13.7118461607        9.8222596933        0.9199716969
  S        17.3843167044       18.3846029721        3.4317682137
  N        17.9891465533       17.9800505282        2.0339086806
  C        18.5140180507       15.8209680546        0.8880252840
  H        19.0565175263       13.7311584521        0.3397723771
  H        13.7944716164       15.0199244465       10.6028462319
  H        13.3612970897       15.0051838976       12.2941485427
  C        12.3761634398       13.5560921894       11.0346854817
  H        16.4182432082       15.0242888677       11.5569266821
  H        15.4203487285       14.9989308963       12.9590184678
  C        17.1286991807       13.4701229274       12.8529119504
  H        14.0499071172       12.4500833409       14.4588208767
  C        14.0704089155        9.6145559063       15.1737227304
  H        14.3150829573        8.9419597944        0.8429208499
  H        14.3797626742       10.6105321521        0.6168096948
  C        12.5378110259        9.6147761335        0.0168755913
  C        18.5919740900       16.5421618759       -0.3691625244
  H        12.5966254439       12.8992881062       10.1769717900
  H        12.1726614210       12.8492236696       11.8370802788
  C        11.1303204270       14.3313302087       10.6783055008
  H        17.5249746487       12.7864698775       12.1322667208
  H        16.7259106717       12.9360801980       13.7357365451
  C        18.2278437801       14.3555957615       13.3674711784
  C        13.9004165248        8.1957534066       15.3116835048
  C        14.1488456235       10.3698064964       16.4541535471
  H        12.3243313937        8.5197136308       -0.1003867989
  H        11.6531675237        9.9921938137        0.4343330719
  C        12.7337731550       10.3046545551       -1.3440854426
  H        18.5070635972       17.5690783790       -0.2914381309
  C        18.8696865736       16.0569507901       -1.5999551243
  H        11.3777320640       15.1490384941       10.0428584362
  H        10.6971290090       14.7927188429       11.6066979467
  C         9.9514074397       13.5909955806        9.9768050237
  H        18.7194389131       14.9120797311       12.5825335161
  H        17.7671061865       15.1010758166       13.9845117608
  C        19.3119125324       13.5556984284       14.0894649434
  N        13.8499961919        7.2251858395       14.2715441394
  C        13.5999223258        7.6266549226       16.5394021336
  C        13.9974276389        9.7465731696       17.7185194785
  H        14.3639909867       11.3963438089       16.4400067060
  H        11.8345644612       10.2789054671       -1.9555166985
  H        13.4930203236        9.7381499871       -1.9795976651
  H        13.0872911346       11.3178063112       -1.1664562519
  S        19.0918458756       14.4332669250       -2.0232691511
  C        19.0669060060       17.0137919382       -2.7202879170
  H        10.2783393410       12.8032929951        9.2941362980
  H         9.3685304888       13.0943322299       10.7991943427
  C         9.0764435900       14.7177574451        9.3211948285
  H        19.2774045340       12.4616361020       13.8984771156
  H        19.0100100102       13.6584415306       15.0736859900
  C        20.7135627226       14.1210148559       13.9202834997
  S        13.6638289320        5.7218945571       14.9976723956
  N        13.5032389277        6.2214431665       16.4915371500
  C        13.5702224617        8.3106172622       17.7720174356
  H        14.0199578112       10.1922460303       18.6930570946
  C        19.5029105249       14.9146642688       -3.6549427397
  N        19.4923731867       16.2865797543       -3.8003638229
  O        19.0690168494       18.2236535495       -2.6050812044
  H         8.8038662819       15.5507784646        9.9961485069
  H         9.5572640713       15.1462100414        8.4493470271
  C         7.7876399774       14.0934367311        8.7258344399
  H        21.4225584487       13.2855536136       14.0913311928
  H        20.8685460937       14.4442712852       12.8621244400
  C        20.9822104409       15.2955769158       14.8501556679
  C        13.1894878513        7.5321359621       18.9193149717
  S        19.9187293432       13.8761896615       -5.0423019797
  C        19.7012655905       16.9696791707       -5.0815756483
  H         7.1787130785       14.7522677636        8.1159591280
  H         7.9913580344       13.2162316466        8.0348799941
  C         6.8641715623       13.6884573709        9.8985028702
  H        21.1584313002       15.0144695570       15.8382916140
  H        20.0960505430       15.8710509078       14.8516702812
  C        22.1234493749       16.3637560926       14.4280208973
  H        13.3315856463        6.4768906886       18.9444627185
  C        12.5807007216        7.8801474514       20.0977024192
  H        20.3759253389       16.3610409342       -5.6782544083
  H        20.1212330994       17.9263599950       -4.9695287294
  C        18.4315675809       16.9699376250       -5.9690656673
  H         7.0625106700       14.3047900293       10.7329098809
  H         6.9548063441       12.6700008857       10.2027788919
  C         5.3677045448       13.9762886893        9.7645659859
  H        22.1101618855       17.1671613360       15.2094228015
  H        23.0308016808       15.8089413693       14.3088592067
  C        21.8132483204       17.0473021398       13.1001592238
  S        11.9230419974        9.4474833773       20.4230251062
  C        12.3931064610        6.8466641401       21.1575171240
  H        18.4303249186       17.9029391565       -6.6268479471
  H        17.5587927393       17.0297940794       -5.2993468653
  H        18.2740470828       16.1649290004       -6.6736010856
  H         5.1154352464       14.4314641144        8.8097841187
  H         4.7780311358       13.0988052287       10.0584328486
  H         5.0343716909       14.7778906616       10.4340282072
  H        20.9782573223       17.6608985381       13.1394374396
  H        22.6761026594       17.6545765480       12.7632374699
  H        21.7854363422       16.3542480987       12.3230812220
  C        11.4785301473        8.7449582210       22.0274166242
  N        11.7393053309        7.4295205415       22.2029177020
  O        12.7966784172        5.6926539454       21.0894425091
  S        10.8024090167        9.7203436342       23.3331736772
  C        11.5747415880        6.7443113536       23.4974961533
  H        11.4081066185        5.7128432754       23.2088750042
  H        10.6279728998        7.0505797065       23.9061671747
  C        12.7849329018        6.9368299741       24.3928724474
  H        13.1168679239        7.9609974443       24.1128208801
  H        13.5552151462        6.2068049688       24.2313002058
  H        12.5914364685        7.0512839001       25.4566907872
