352
 i =    53200, time =    53200.000, E =        24.6969043953
  H        12.0388252553        6.0328576564       32.4241931702
  C        10.9792866521        6.0056444302       32.3421265758
  H        10.6619448274        4.9627440894       32.2848591486
  C        10.2972416555        6.6968641287       31.1506004509
  C        10.4570834789        6.4481068102       33.6688028633
  C        10.9130784273        6.2783873543       29.7815651932
  H         9.2734098243        6.4683822192       31.2663411138
  H        10.4656466826        7.7814534545       31.3048251212
  H         9.3555679730        6.5416401860       33.5997313266
  H        10.7881524384        5.7414690412       34.3876442076
  H        11.0500832472        7.2754055948       34.0394984825
  C         9.8033403088        6.2729933893       28.7849320865
  H        11.4327995931        5.3279111572       29.8014941331
  H        11.5640959487        7.1010516357       29.4493679902
  C        10.4269374409        5.9778999062       27.3513801769
  H         9.1635587692        5.4867945793       29.1276067950
  H         9.2197479705        7.2161048493       28.7634436075
  C         9.5351106209        5.3350818687       26.3612321057
  H        11.3672315796        5.3951559759       27.4050966815
  H        10.7026200027        6.9740036234       26.9549346705
  C         8.1503560945        6.0264939960       26.2709631742
  H         9.9606990130        5.1827520215       25.4143491185
  H         9.3572119323        4.2612222979       26.6259358995
  C         7.1301536826        5.2630919550       25.4042123666
  H         7.7157912346        6.2351968108       27.2457458832
  H         8.2406900135        7.0525952045       25.9652388521
  C         6.7517662697        3.9381391988       26.1239483067
  C         7.5732280785        4.5327357540       24.1852275418
  C         5.8176572533        6.0904002574       25.2454332318
  C         7.1597472747        2.8245160990       25.4440393421
  C         6.2533657291        3.5581390673       27.3873131542
  C         7.5955806075        3.1957959789       24.1804031607
  C         8.0653718741        5.2289093799       23.0585104626
  H         5.9493599808        6.8048457712       24.4192637758
  H         5.5310726552        6.5489145243       26.2009529528
  C         4.6438254456        5.2735323066       24.7185580588
  S         6.8499355884        1.3654285781       26.2571943082
  C         6.2486817410        2.2408770701       27.6191465317
  H         5.9765186085        4.3522631252       28.0460134918
  C         7.9693083407        2.6007352559       22.9860839103
  H         8.2777627944        6.2554629617       23.2903747201
  C         8.3707097454        4.6285413672       21.8665656228
  H         4.9389253169        4.7532109065       23.7971019819
  H         4.3912992353        4.3732647706       25.3359920023
  C         3.4417711756        6.1175016136       24.4126308412
  C         5.9685585569        1.5713496188       28.9415456292
  C         8.2324052127        3.2694976141       21.8224723912
  H         7.9056595992        1.5113081424       23.0569998267
  C         8.7014160714        4.9891779924       20.6554497324
  H         2.9460911535        5.8031211204       23.4842125340
  H         3.9008432896        7.0560320109       24.1554631161
  C         2.5413641935        6.3426603420       25.6429270696
  C         5.8492257888        0.1455429030       29.1143694941
  C         5.6670402078        2.3936950816       30.1355334949
  C         8.6690091903        2.6076416626       20.6005348924
  C         9.0114293644        3.9070482598       19.8511563651
  S         9.0405758996        6.4578462216       19.8913441695
  H         1.5210749198        6.7077229962       25.5010096507
  H         3.0671382493        7.1237468078       26.1142813216
  C         2.4376925545        5.0938829050       26.5378584647
  N         6.1858952667       -0.7808719676       28.1340063253
  C         5.3705267204       -0.4115259381       30.2919862361
  C         5.1952547982        1.8494116863       31.3089266531
  H         5.7285714141        3.4734135350       30.0741004814
  C         7.5815331647        1.8008206715       19.8321566250
  C         9.9848701654        1.8115793164       20.7062881064
  C         9.4083725662        4.3021455134       18.5231475940
  C         9.4418060135        5.6617804581       18.4007704514
  H         2.1791807765        4.3134160620       25.8648064938
  H         3.3392357734        4.9811360219       27.0238666781
  C         1.3324151242        5.2902461312       27.5691389919
  S         5.9224933253       -2.2530728521       28.8154606322
  N         5.3362506694       -1.7688295293       30.2680997947
  C         5.0593229574        0.3673500599       31.4803002320
  H         5.1508022499        2.4844042258       32.2144728927
  H         7.2645858245        0.9823909581       20.4566117277
  H         7.9285523434        1.4062125102       18.9195081988
  C         6.3419427290        2.6596347487       19.3185620623
  H        10.0627647387        1.1880804041       19.7598947241
  H         9.7562284726        1.2248571281       21.5020301865
  C        11.2821090184        2.5809284199       20.9737791912
  H         9.6506754203        3.5874790031       17.7535731386
  C         9.8845711669        6.4259873353       17.1716067894
  H         0.6201657187        4.3959786861       27.4270808854
  H         0.7866680184        6.1921018491       27.3675592221
  C         2.0276111382        5.3170761760       28.9740592337
  C         4.8617776069       -0.3140006417       32.7153063659
  H         6.6866194090        3.4395194633       18.5658360594
  H         5.9585319281        3.2782379723       20.0595646476
  C         5.2032700214        1.8670923272       18.7758736827
  H        11.2551955938        2.7494750426       22.0541757747
  H        11.3999562325        3.4504333258       20.4728182731
  C        12.5419900838        1.7670694896       20.7077704208
  C         9.9687000087        7.7906578202       17.1269555999
  C        10.0854274176        5.6618673928       15.9240003564
  H         2.6277712123        4.4859512570       29.1669612367
  H         2.7344755570        6.1125987593       28.8309238061
  C         1.2504423577        5.5559639758       30.3041372844
  H         5.0234105505       -1.3918718556       32.6606011857
  C         4.6139622545        0.0843534427       34.0347900496
  H         4.9429550925        1.1067164035       19.5761266631
  H         5.5080752722        1.3502586020       17.8707936741
  C         4.0404885878        2.7213177606       18.4025862289
  H        12.6226731716        0.9259502852       21.4600474647
  H        12.3862314637        1.2614151727       19.7354664796
  C        13.7374633944        2.6431730303       20.6068106324
  N         9.6614821523        8.6443554170       18.0966961442
  C        10.2464482132        8.3958817232       15.9405845133
  C        10.4981717593        6.3254423806       14.7867988360
  H        10.0148562497        4.5873131710       15.8990024174
  H         1.9050723925        5.1647995134       31.0912965033
  H         1.0555276738        6.6202221198       30.5514021117
  H         0.4100509683        4.9049004754       30.4474175042
  S         4.2302174661        1.6969605788       34.4654487469
  C         4.5678851338       -0.8619677582       35.1411786841
  H         3.9527205677        3.4876157074       19.0913173835
  H         4.2803963292        3.2070635002       17.4939602239
  C         2.7071036576        1.8977271031       18.2709668310
  H        13.4256223451        3.4605336442       19.9400195734
  H        14.5776877342        2.2020286865       20.1281683706
  C        14.2364653796        3.2694450452       21.9480987328
  S         9.8688658963       10.1919329978       17.6168830117
  N        10.2529335885        9.7973282980       16.0929845081
  C        10.5896014220        7.7917614277       14.7604290767
  H        10.6558010512        5.8634395018       13.8204812908
  C         4.0626001566        1.0601529201       36.1577311993
  N         4.3201666941       -0.2818504918       36.3142336283
  O         4.9454309767       -2.0034153269       35.0403054403
  H         1.8129330018        2.4903567615       17.9676377494
  H         2.4254273274        1.5213449044       19.2885594468
  C         2.7634675185        0.7356467558       17.2270519158
  H        14.8128613585        4.1975769684       21.8543625040
  H        13.3942572221        3.7519188970       22.4181692347
  C        15.0356312016        2.1780184596       22.7556134448
  C        10.8501494270        8.5794900732       13.5726589783
  S         3.4583780317        2.0012549645       37.5084506003
  C         4.3366539171       -1.0632219835       37.5534775507
  H         1.8285140526        0.8877141307       16.6485422041
  H         3.6590855820        0.6106621761       16.5901329508
  C         2.5534825735       -0.6553994360       17.9475224139
  H        14.5009573899        1.1799861275       22.7118540653
  H        14.9248668942        2.3917926940       23.7798334261
  C        16.5042600869        1.9612955138       22.2387154541
  H        10.6343003212        9.6269912289       13.6277950608
  C        11.3590709159        8.3215035953       12.3304467546
  H         3.6793131863       -0.6757901057       38.3252728145
  H         4.0193181795       -2.1498387829       37.4255061556
  C         5.7783359051       -1.1410757019       38.0386862879
  H         1.5617934869       -0.6334094765       18.4332607894
  H         3.2711780507       -0.7584507892       18.6992667038
  C         2.5535568348       -1.8659433601       17.0012003391
  H        16.6983303477        0.9057727197       22.1318746392
  H        16.6073491293        2.4997618091       21.2739618276
  C        17.5383440081        2.4936737446       23.2443902800
  S        11.9380115968        6.8328408363       11.8422823732
  C        11.5206871191        9.4639032370       11.4301518395
  H         6.2668889741       -0.2361902584       38.4365295120
  H         5.7251423960       -1.8151580141       38.8851931384
  H         6.4686844720       -1.6207995055       37.2985782050
  H         2.4118365830       -1.4030367691       16.0250824733
  H         1.8542612000       -2.6318599163       17.3730923588
  H         3.5710747883       -2.2396055907       16.9000387466
  H        17.5046895311        1.8396603729       24.0856240498
  H        17.2754455045        3.4887827420       23.5791693187
  H        18.5574272524        2.4713140640       22.8752390592
  C        12.3562488511        7.6876678631       10.3197997382
  N        12.2032380830        9.0225328081       10.3253402765
  O        11.3203128673       10.6345888061       11.7609985686
  S        13.1613525673        6.9790467347        8.8835250343
  C        12.4428644621        9.9419395113        9.2085787649
  H        12.7039492169       10.9327836525        9.6208820646
  H        13.3877828694        9.5662065389        8.7519601307
  C        11.0549944157        9.9508294994        8.4115823501
  H        10.2724355529       10.4985671369        8.9286794030
  H        11.2572762987       10.4301870888        7.4746553706
  H        10.7190826261        8.9495367344        8.2407227823
  H        23.5384351463       10.0436915792        3.3037069633
  C        22.8523729475       10.6335345195        3.9124315592
  H        23.1516228992       11.6856749749        3.8924670946
  C        22.8811299445       10.1407866520        5.3000431966
  C        21.5550657452       10.4043584651        3.2251537188
  C        21.5893324163       10.4459714726        6.0466539158
  H        23.1613906172        9.1289068266        5.3194223893
  H        23.6783022557       10.6404223567        5.7702824389
  H        20.7587957500       11.2154964777        3.3313116522
  H        21.1422944697        9.3621056269        3.4002296821
  H        21.7781477823       10.4996712187        2.1649395969
  C        20.7193781877        9.1945740519        6.3457638635
  H        21.9752522596       10.7796195924        6.9778354917
  H        20.9128599888       11.1711837082        5.5635724560
  C        19.8361489647        9.3626757805        7.5892705377
  H        21.3791443063        8.3788870748        6.5514356599
  H        20.1033122206        8.9702379911        5.4298778730
  C        18.7777517729       10.4064156656        7.4040671454
  H        20.4381199952        9.7267557585        8.3482217097
  H        19.3618490713        8.5130517915        8.0976313943
  C        17.3532860067        9.9047725465        6.8758296524
  H        18.5807880976       10.7946474907        8.4261398250
  H        19.1478712114       11.1820869230        6.7661126192
  C        16.2395793580       10.9707509404        6.9323789132
  H        17.1126190556        9.0087605832        7.4989583585
  H        17.4441117988        9.4594017080        5.9267292069
  C        16.6405856978       12.3511524018        6.3190838280
  C        16.0579200197       11.6952464947        8.2135398382
  C        14.9772199431       10.3718095125        6.2550617887
  C        16.5323766107       13.4380575423        7.1453812120
  C        17.0874706330       12.7251907313        5.0103038535
  C        16.1855917638       12.9837205046        8.4116754002
  C        15.7608808453       11.0127881152        9.4078900189
  H        15.2820236344       10.0195135130        5.2484260317
  H        14.5260890776        9.4926743617        6.7720766217
  C        13.9182324143       11.3611312818        5.9780343026
  S        16.9681215642       14.9257797957        6.3692814151
  C        17.3528487263       14.0327831779        4.8991654984
  H        17.2481759558       11.9865531974        4.2262914779
  C        16.0105654213       13.5630873690        9.6365679324
  H        15.6010021539        9.9549373344        9.4275759761
  C        15.5493806930       11.5876589718       10.6156889245
  H        14.2067817270       12.3675436072        5.6361495069
  H        13.4863164474       11.7153931459        6.9174378720
  C        12.8040164901       10.9207891742        5.0129194753
  C        17.7952543244       14.7262841309        3.6530790516
  C        15.6573255843       12.8809683522       10.7532719210
  H        16.0091515481       14.6083260239        9.7068766787
  C        15.0421939470       11.1684650571       11.8446187886
  H        11.9679604983       11.5328641006        5.1929234013
  H        12.5070514798        9.8898033323        5.3569806831
  C        13.1873505695       11.0231231189        3.5279046960
  C        17.9180829216       16.1277668246        3.3619061177
  C        18.2684850834       13.8398479056        2.4856871823
  C        15.1203026896       13.6036257203       12.0207039406
  C        14.7856001028       12.2562578451       12.6660480432
  S        14.6367068063        9.6970671865       12.5522167611
  H        14.0649212151       10.4525429625        3.3018344336
  H        13.4147756299       12.0590362996        3.3727092523
  C        12.0086421985       10.4711436475        2.6575926600
  N        17.7314156659       17.1038591305        4.3387743154
  C        18.2493783005       16.6367982321        2.1418924025
  C        18.4590358886       14.3789223685        1.1705163854
  H        18.2622382654       12.7376034429        2.6795725568
  C        13.8814554502       14.4973022404       11.8489906631
  C        16.2450531123       14.3317796747       12.7638294870
  C        14.1080808197       11.8127461087       13.8191847947
  C        14.0392267534       10.4762173721       13.9236295118
  H        11.3088615021        9.8611357171        3.1969554775
  H        11.4364790170       11.3473538600        2.3629408838
  C        12.4530695928        9.5934426763        1.4162759918
  S        17.8917048965       18.5743539797        3.6745422422
  N        18.3137767616       18.0543014378        2.2155731590
  C        18.4942778591       15.8275293920        1.0059253206
  H        18.7222903623       13.7583308597        0.3741641113
  H        14.0919993154       15.3824306391       11.2481621858
  H        13.4271135598       14.8536556180       12.8397202489
  C        12.7843848565       13.7160818583       11.0383054079
  H        16.7763264216       14.8749684152       11.9855579774
  H        15.9964026502       15.0517542784       13.5860215087
  C        17.2357773030       13.4292468880       13.4550703846
  H        13.7160230232       12.5204423331       14.6029024704
  C        13.7606909520        9.6613742029       15.2207857213
  H        11.5670340315        8.9679016314        1.0614449338
  H        13.2624931902        8.8798813365        1.6503156715
  C        12.9877255832       10.3756429660        0.2099059415
  C        18.8324361926       16.5002156643       -0.2159410924
  H        13.2900463522       13.2949062836       10.1206506079
  H        12.5719754949       12.9022494864       11.6777080383
  C        11.6136223243       14.5976489036       10.6799040707
  H        17.4779643296       12.3748007300       13.0632914325
  H        16.7649687942       13.1576407188       14.3057754080
  C        18.5240622090       14.2012370666       13.8168545634
  C        13.8164921220        8.2165432452       15.3956500186
  C        13.6058362589       10.4377304169       16.5135078389
  H        13.3685922191       11.3051096038        0.5009029388
  H        13.8785964251        9.7755126359       -0.1553425320
  C        11.9899846560       10.5276968652       -0.8810453353
  H        18.6791325094       17.5513625985       -0.2161814426
  C        19.1926176773       16.0981453298       -1.5324612975
  H        11.8230411426       15.2050029221        9.8012064751
  H        11.3828710137       15.4026009652       11.3369771251
  C        10.4005122592       13.7160947233       10.6794833725
  H        19.0237445893       14.4627265929       12.9163032920
  H        18.1794478300       15.1912208539       14.2791152824
  C        19.5289123498       13.5221857713       14.8040061301
  N        14.0048423958        7.2357634637       14.3711932049
  C        13.6064484816        7.5664338641       16.5824381120
  C        13.5397116280        9.7842517818       17.7166863822
  H        13.5793013498       11.5719558802       16.5047788213
  H        11.2234764929        9.7552434244       -0.7785847308
  H        12.3749668870       10.5646205952       -1.9473897787
  H        11.3363850992       11.3872163616       -0.6877451797
  S        19.3928156765       14.5075520932       -2.0131193017
  C        19.3316084370       17.1762532084       -2.5141015196
  H        10.5775259261       12.7775070759       10.1307875584
  H         9.9432018767       13.5283104890       11.6552949244
  C         9.2954077677       14.4743377505        9.9115696945
  H        19.6220120304       12.4954232124       14.3973897598
  H        19.1777865650       13.5825490263       15.8525096394
  C        20.8483773731       14.2228515071       14.8475243822
  S        13.9154668911        5.7241603626       15.0369095160
  N        13.3944026603        6.2216344971       16.4948596168
  C        13.3631404523        8.3042695576       17.7346557112
  H        13.4449784863       10.3441103922       18.6555191469
  C        19.7406474054       15.2154216467       -3.6110298207
  N        19.6464389468       16.5418934370       -3.6568642974
  O        19.2209947038       18.3664831427       -2.2760711977
  H         8.9902641708       15.3152884593       10.5386512642
  H         9.8617638241       15.0435842326        9.1641454592
  C         8.0969439752       13.6010208740        9.3934001000
  H        21.6049394395       13.5298796109       15.2312871013
  H        21.1778364019       14.5825529402       13.8551265547
  C        20.8563448003       15.5259338560       15.6682466765
  C        12.9437965396        7.5299088712       18.8881728668
  S        20.1238695998       14.2535057775       -4.9722119575
  C        19.8699246629       17.2943847666       -4.9307069487
  H         8.3974385829       12.8129834664        8.7088688325
  H         7.6463431140       12.9416841764       10.1365406742
  C         7.1433234285       14.3805217109        8.7233910671
  H        20.6880231041       15.2011426214       16.7221797575
  H        19.9990948692       16.2682195470       15.3289968388
  C        22.1789480236       16.2930356354       15.5827983592
  H        13.3064979377        6.4855788703       18.9586471779
  C        12.3610530989        7.9428738893       20.0530696269
  H        20.6899046360       16.9547058199       -5.4997512897
  H        20.0152995833       18.3859049611       -4.8942444824
  C        18.6253225467       17.1740631429       -5.8022450318
  H         6.8904630726       13.9621945120        7.7342539345
  H         7.4756634896       15.4146467842        8.7426299044
  C         5.9002265735       14.4899565883        9.4310447817
  H        22.3507832728       16.6064778426       16.5948300003
  H        23.0069518967       15.7272078356       15.2398257014
  C        22.0551167674       17.5054832279       14.6920152984
  S        11.7851694262        9.5124374814       20.4396953413
  C        12.2114784652        6.9294392257       21.1190461032
  H        17.6145055125       16.9334749424       -5.3613568900
  H        18.8840376730       16.5128801403       -6.6334115082
  H        18.5415536391       18.1465859779       -6.2337735212
  H         5.9686194098       15.0113178366       10.3832002177
  H         5.1103118652       15.0165930539        8.9463453480
  H         5.5760809148       13.4618673453        9.5870856484
  H        21.7366821432       17.1296844653       13.7549968360
  H        21.2176642475       18.1121637667       15.0860555544
  H        22.9481234520       18.0949185435       14.5245280093
  C        11.2596941580        8.8903561617       22.0132085748
  N        11.5780596731        7.5397044516       22.1820754649
  O        12.5374793129        5.7616738406       21.0147536570
  S        10.6134528939        9.7224050314       23.4603102316
  C        11.4007297627        6.8423731065       23.4500178759
  H        11.4608509916        5.7320664725       23.2592101893
  H        10.5493310675        7.0494313368       24.0086494644
  C        12.6105140479        7.0851594676       24.3535170702
  H        12.4592955899        6.3717653215       25.1376528643
  H        12.7090139175        8.0617123841       24.6432595447
  H        13.5474848847        6.8815793740       23.8681187095
