352
 i =    62000, time =    62000.000, E =        25.1149484822
  H         9.7540737700        5.0464455623       31.6082976334
  C        10.2175933852        5.9020350359       32.1129139634
  H         9.4206417436        6.4680015044       32.4382950681
  C        10.9250980831        6.8944398309       31.1176418668
  C        11.1377485340        5.5567687188       33.2935458530
  C        11.2295445069        6.2743878042       29.7364728237
  H        10.2569926260        7.6747702621       30.9053977846
  H        11.8237126516        7.3165152341       31.5622550387
  H        12.0530694358        5.0209236222       32.9546290345
  H        11.4014743646        6.4687050832       33.8692770890
  H        10.6244861147        4.9497297315       34.0237875912
  C         9.9803103974        6.2629322842       28.7317183905
  H        11.6073094809        5.2840139415       29.8285802642
  H        12.0252777667        6.8139090323       29.2141491100
  C        10.5822983021        6.0413092897       27.3479845627
  H         9.2355995829        5.5509855906       28.9650166931
  H         9.3885822244        7.1331714795       28.8223212038
  C         9.6500800779        5.3734792713       26.3673552233
  H        11.5047416043        5.5435763944       27.4501659658
  H        10.7528251891        7.0541847083       27.0056209237
  C         8.3503971585        6.0172625162       26.0202711206
  H        10.1672665848        5.1944709559       25.4894593276
  H         9.4077731541        4.3651138492       26.7373137464
  C         7.2842876407        5.1628879432       25.3014751964
  H         7.7868485721        6.5417654236       26.8000871416
  H         8.6360966494        6.7407872341       25.2595245070
  C         7.0111941199        3.8378082838       26.0112353045
  C         7.7582461778        4.3847917350       24.1265314475
  C         6.0834634828        5.9852892201       24.8618408932
  C         7.1891184610        2.6775336192       25.1904060525
  C         6.5266069301        3.4797309948       27.2605904870
  C         7.7067996788        3.0608161506       24.0079932448
  C         8.1767837466        5.0412285890       22.9436951466
  H         5.6590018690        5.5612204030       23.9150084532
  H         6.4414286242        7.0345320006       24.6240029638
  C         4.9870235886        6.1305714841       25.9173435320
  S         6.7907438371        1.2719999533       26.0355184401
  C         6.2196768786        2.1571893285       27.4067086739
  H         6.3625386034        4.2289051586       27.9901528403
  C         8.1646467715        2.4211238570       22.9205684665
  H         8.1199800506        6.1162238968       23.0715006720
  C         8.5203538563        4.4474154990       21.8041924100
  H         4.9502825596        5.2872294531       26.5973138863
  H         5.3695996624        6.9907913157       26.4826965383
  C         3.5795479643        6.4261967947       25.3427370150
  C         5.7228432929        1.5015941681       28.6943859802
  C         8.6255457245        3.1110933154       21.8060033619
  H         8.0775972374        1.3985703396       22.8271376927
  C         8.9827235751        4.8045483996       20.5934332548
  H         3.2531583080        5.8532273650       24.4246401801
  H         3.6487852378        7.4058295844       24.9785737088
  C         2.4979113877        6.5762632589       26.4101708595
  C         5.9031576982        0.1539034621       28.9960202316
  C         5.2447842008        2.3736631517       29.8071427051
  C         9.0981537265        2.3348531043       20.6433379747
  C         9.2456632819        3.7033680065       19.8259227589
  S         9.1971811317        6.2554027154       19.8528423042
  H         1.6483621072        6.9053563088       25.9391933939
  H         2.7216101022        7.2525910005       27.1967506481
  C         1.9322865103        5.1566046156       26.7905946277
  N         6.2322377665       -0.8104065582       28.0630121112
  C         5.4378916593       -0.3873602756       30.1951834018
  C         4.9782807382        1.8489003308       31.0546778744
  H         5.1526839658        3.4461486377       29.6747185316
  C         8.0084317546        1.4696022531       19.9501608979
  C        10.3398662895        1.4900787183       21.0147728440
  C         9.6739796045        4.0534132054       18.5351239793
  C         9.6324519102        5.4008816178       18.3106662273
  H         1.1659328612        5.0126983050       26.0536369635
  H         2.6871492875        4.4267606445       26.7932473407
  C         1.3213078167        5.1821412607       28.1943622305
  S         6.0116894262       -2.2659392634       28.7922071646
  N         5.5440720383       -1.7672002296       30.2560230476
  C         5.0170412574        0.3942188030       31.3206128838
  H         4.7200669042        2.5506103223       31.7579329012
  H         7.7338844739        0.6686522238       20.5858651363
  H         8.5831187966        0.9627621458       19.1266530613
  C         6.7824643280        2.1834040538       19.4711416447
  H        10.5031179497        0.7231170765       20.2534071086
  H        10.2062367745        1.0374205312       22.0061468118
  C        11.5660737498        2.3760553771       21.2227673593
  H         9.9903155403        3.2140981112       17.8882255279
  C         9.9594829923        6.0838978133       17.0782477797
  H         0.9800786285        4.2561680896       28.5185355568
  H         0.4040321689        5.8391575832       28.1898326576
  C         2.2661511602        5.6466017581       29.2632094376
  C         4.6801444648       -0.2031218486       32.6064369800
  H         6.8541251664        3.0923773234       18.8728322096
  H         6.3035244016        2.6411617311       20.3806129523
  C         5.7307431530        1.1592003796       18.8942293647
  H        11.4940939304        3.1505623049       21.9200600021
  H        11.7910154581        2.9349383235       20.3211883438
  C        12.7707641334        1.6967879920       21.6561876906
  C         9.9345585299        7.5208694026       16.9964982915
  C        10.2224203975        5.3558750892       15.8635007140
  H         3.0117839457        4.9170073089       29.6181882406
  H         2.8760558579        6.5461548247       29.0672257464
  C         1.5296235611        5.9824365991       30.5238600510
  H         4.6959365653       -1.3197445027       32.5544991498
  C         4.4993325238        0.3771118025       33.8197298471
  H         5.4103890902        0.4851466650       19.7785366237
  H         6.0070839282        0.5448614990       18.0421816972
  C         4.3548547560        1.8939722698       18.5454930691
  H        12.6322955191        1.0791211274       22.5548236751
  H        13.0874303210        1.0689609341       20.9141112934
  C        13.9096923901        2.6846567793       22.0308565817
  N         9.8729974194        8.4149517313       18.1153650641
  C        10.1802210475        8.1752298145       15.8242646630
  C        10.4793682168        6.0517700798       14.6673238704
  H        10.0987389726        4.3342773498       15.8633496113
  H         0.8429558492        6.8463032565       30.4391807424
  H         0.9435756267        5.1125624061       30.8015365417
  H         2.2744692548        6.2070666459       31.3388108228
  S         4.2955559380        2.0176936437       34.2416075690
  C         4.3866435429       -0.6487045751       34.9314822418
  H         4.3076325010        2.4649543166       19.4416242189
  H         4.5097802136        2.5390672962       17.6868159449
  C         3.0535414297        1.0627609714       18.2000796046
  H        13.3898939768        3.4682242012       22.6128065043
  H        14.4361721754        3.1261188430       21.1773663853
  C        14.9994578257        1.9726480538       22.7994777746
  S        10.0425054050        9.9151998430       17.5986126070
  N        10.3220315083        9.5556858636       15.9730526420
  C        10.5751252033        7.5381990868       14.6184754993
  H        10.5792477829        5.4259359958       13.8107999646
  C         4.0503747409        1.3589407514       35.9007064259
  N         4.0124135302        0.0104097377       36.0749234209
  O         4.5357035449       -1.9016125411       34.6985335389
  H         2.1255675461        1.6531097689       18.2689716102
  H         3.0063077912        0.4014786644       19.0367326710
  C         3.0475267158        0.3728676298       16.8624539524
  H        14.5372146529        1.5290964185       23.6289565730
  H        15.3752555995        1.2350807404       22.1027387369
  C        16.1167315402        2.8852338810       23.2262877939
  C        10.8302584612        8.3363459984       13.4833970144
  S         3.3576247780        2.2509876639       37.2311174658
  C         3.9105104150       -0.7100976516       37.2883867167
  H         2.9709015844        1.1510044899       16.0649237995
  H         3.8604295058       -0.2603016899       16.5171965189
  C         1.8044015603       -0.5053448782       16.8226033562
  H        15.7453189212        3.4744588488       24.0083764267
  H        16.3844685745        3.5170797756       22.3851822331
  C        17.3519329148        2.0441702981       23.6533965568
  H        10.4407854402        9.3121811185       13.5737237823
  C        11.3013437432        7.9587747956       12.2422596194
  H         3.4626198958       -0.0989423453       38.0521627982
  H         3.2693510221       -1.6043592058       37.2372411382
  C         5.2685808086       -1.1361610513       37.8036743276
  H         1.7811011571       -0.6704056759       15.7676332856
  H         0.8949317816        0.0182500976       17.1167192080
  C         1.9451081510       -1.8448032046       17.5692743026
  H        17.9352536773        2.6492976623       24.4191923967
  H        16.8888358528        1.2432506085       24.2586069241
  C        18.3814566993        1.7187934137       22.5504900253
  S        11.6753411236        6.3916856521       11.6464388253
  C        11.4807072176        9.0971047192       11.2887294906
  H         5.2231875398       -1.3661211275       38.9456979466
  H         5.5030887868       -2.0436770324       37.2903182696
  H         6.1705095435       -0.6560196825       37.5696504851
  H         2.5973068395       -1.8952259507       18.4505368286
  H         2.4290812801       -2.5917663067       16.9331497380
  H         0.9891599450       -2.1983918298       17.8002333790
  H        19.2159678781        1.2164611932       23.0101255892
  H        18.8450691506        2.6148078187       22.1278290592
  H        17.9052203016        1.1564874238       21.8040792450
  C        12.1957329734        7.2712259715       10.1740644043
  N        11.9687230390        8.5927873302       10.1443208428
  O        11.0089025319       10.2402299977       11.4631908108
  S        12.8553320399        6.4539899219        8.8302371173
  C        12.1747832940        9.4586365769        9.0126328519
  H        12.4434387844       10.4160893483        9.3406272243
  H        13.0221810868        9.0222573272        8.5279710554
  C        10.8622530405        9.6359902979        8.1809250251
  H        10.8772485679        8.9090628744        7.3627938408
  H         9.9453911368        9.6316928531        8.7293100550
  H        11.0138024577       10.5668435711        7.6104839512
  H        21.3584590320        8.7259136921        3.5088426195
  C        22.2033704802        9.3333464360        3.2635341533
  H        22.8147549342        8.6048786499        2.6808719573
  C        22.9787799766        9.7783508872        4.5249361650
  C        21.7202485170       10.4382547007        2.2952358038
  C        22.0899035967       10.5256002988        5.5413031080
  H        23.4558131008        8.9166833034        5.0259994554
  H        23.8270261429       10.4275611609        4.3210483077
  H        20.9247994042       10.9694106781        2.5843155349
  H        21.4151383341        9.9195898940        1.3793369597
  H        22.5223051170       11.1151342472        2.0839620848
  C        20.8399542415        9.7362777246        5.8785547853
  H        22.6653322697       10.7237456130        6.4224165363
  H        21.7971378510       11.4812861674        5.0718652597
  C        20.4795791415        9.7720246875        7.3325469199
  H        21.0910740194        8.6858681824        5.5844799177
  H        20.0751176725       10.1598639685        5.1899327511
  C        19.1970753068       10.6814717212        7.4758573757
  H        21.3195811240       10.1574740083        7.9057139621
  H        20.2956948777        8.8463920896        7.8678832188
  C        17.9346250930        9.9023514376        7.0031391522
  H        19.0600452652       10.9647964443        8.4977199782
  H        19.3591481923       11.5461972572        6.8716422659
  C        16.6372517137       10.7503923540        6.9097170311
  H        17.8318622927        9.1929814191        7.7612827631
  H        18.1971466908        9.4955567065        6.0370492537
  C        17.0341334164       12.1175991746        6.2370826141
  C        16.3091708113       11.4996169643        8.1776544367
  C        15.4485350350       10.0390874237        6.2051984150
  C        16.9004125922       13.2279126039        7.1065843504
  C        17.4661639880       12.5356151497        5.0042629687
  C        16.4028438777       12.8568047960        8.2934550405
  C        15.8414800590       10.8639220261        9.3251818104
  H        15.7969882929        9.5512872169        5.2628096755
  H        15.0268985978        9.1958008324        6.8205826718
  C        14.2758662131       10.9789592737        5.8177882187
  S        17.3119573358       14.7102954594        6.3084037979
  C        17.7280755054       13.8709115196        4.8347714615
  H        17.6616788807       11.7489674598        4.2927942706
  C        16.0533691464       13.4591580204        9.4911514550
  H        15.5160729683        9.8650141835        9.1831762361
  C        15.4766238417       11.5062952843       10.4613191337
  H        14.7529230647       11.7897920292        5.1888265408
  H        13.6911103924       11.4110605893        6.6042578095
  C        13.2422126767       10.3899145821        4.8489328150
  C        18.1438962871       14.5826686056        3.5773669449
  C        15.4902582474       12.8428308603       10.6250837466
  H        16.0587442786       14.5526414713        9.5384297254
  C        14.9368395849       11.1328851383       11.6539817145
  H        12.2936923370       10.9334614445        5.0531499379
  H        12.9935154656        9.3594397309        5.1038687539
  C        13.6901799694       10.3894803366        3.3846638843
  C        18.2375380905       15.9393682087        3.3896840843
  C        18.6404808785       13.8283086977        2.3865658770
  C        15.0126807780       13.5512640595       11.8410638804
  C        14.7239123394       12.2026913446       12.5319077237
  S        14.6565952587        9.5993932298       12.3082105418
  H        14.6565049290        9.8675469951        3.2504304292
  H        13.9367610307       11.4139228476        3.1433341232
  C        12.5389846180        9.8544618955        2.5090467075
  N        18.0393402173       16.8563986564        4.4027914890
  C        18.5670417664       16.5632707822        2.2102430772
  C        18.9271680573       14.3708989493        1.1682788891
  H        18.8303177396       12.7764596451        2.4131413845
  C        13.7083516135       14.2901136843       11.5557196105
  C        16.0697181039       14.3246056358       12.6218100895
  C        14.2145271802       11.6679564664       13.7353734052
  C        14.2204716222       10.3038541593       13.8095917080
  H        11.9455092564        9.1287953367        3.0061074281
  H        11.9382288752       10.7141189081        2.4040362679
  C        12.9582013942        9.2360173430        1.1655862368
  S        18.1246616705       18.3518900416        3.7465513946
  N        18.3764681998       17.9108371981        2.1797279891
  C        18.8843515358       15.8661795281        1.0585577131
  H        19.3044727823       13.6911117252        0.3711028770
  H        13.8619350349       15.2164811058       10.9982333713
  H        13.4087772379       14.5626627960       12.6531914580
  C        12.5680210268       13.3828318704       10.9026936125
  H        16.4327123517       15.2529697501       12.1235053974
  H        15.6569483935       14.5495498873       13.6315039602
  C        17.2860721574       13.5141964280       13.0816404988
  H        13.8530069273       12.3864780250       14.5334724521
  C        13.9813634718        9.4608423951       15.0985504628
  H        12.1927386532        8.7741210749        0.7588242779
  H        13.6482821079        8.4769401431        1.3368257108
  C        13.4871666291       10.3539324659        0.2190237792
  C        19.0724684626       16.5817682665       -0.1485082946
  H        12.8785429212       13.1079286164        9.9073824113
  H        12.2682701717       12.3537606331       11.3236692087
  C        11.2589669282       14.2030788730       10.8395915043
  H        17.7227601638       12.9585616142       12.2345190178
  H        17.0835539466       12.8963779390       13.9894819312
  C        18.3136186188       14.5351398085       13.4634122002
  C        13.9207507230        8.0675131387       15.1371073772
  C        13.8327210257       10.0912093691       16.4517572611
  H        13.6349430629       11.3218553279        0.6941403605
  H        14.4654033691       10.0189089529       -0.1793275193
  C        12.5440964456       10.5585430046       -0.9930580908
  H        19.2972426626       17.6445477332       -0.0463082410
  C        19.2287727355       16.1149573742       -1.4571480960
  H        11.3556326246       15.0111532558       10.1578808111
  H        11.0903424625       14.5514738998       11.9053964915
  C         9.9233661702       13.4530041798       10.5315475450
  H        18.4962229919       15.1063286722       12.6472190501
  H        17.9608942935       15.2559200050       14.2521533096
  C        19.6125558004       13.9171644615       14.0127791104
  N        14.2411939539        7.1702083253       14.0570931019
  C        13.7014654831        7.3937545472       16.3093044257
  C        13.5650544410        9.4543324557       17.6281705036
  H        14.0733174887       11.1414871187       16.4624716834
  H        12.7691388939        9.8535340166       -1.8467033168
  H        12.6115950850       11.5612133965       -1.4047165895
  H        11.5343611106       10.4958727351       -0.6736554645
  S        19.5559626911       14.4801598346       -2.0096931211
  C        19.1408598659       17.2295878823       -2.4857236126
  H        10.0016001940       12.4089609276       10.7702529146
  H         9.1346842677       13.9222213817       11.1879233122
  C         9.7128970956       13.5699992109        9.0104893401
  H        20.2125985540       13.3634686251       13.3431860856
  H        19.3791885302       13.3065179070       14.8655452639
  C        20.4622609757       14.9623995411       14.7124673889
  S        14.0124785713        5.6806687950       14.6188246634
  N        13.7511154220        5.9920753966       16.2055325043
  C        13.3637049369        7.9819365848       17.5913047252
  H        13.4779237966       10.0418816908       18.5787903313
  C        19.7494213558       15.3080455476       -3.6359646906
  N        19.5337304809       16.6695400965       -3.6580570125
  O        19.0053540003       18.3932122703       -2.2034832268
  H         9.6484721819       14.6565135661        8.6569927057
  H        10.5778030632       13.0421923561        8.4860926415
  C         8.6175261209       12.7397668481        8.5268866726
  H        19.9199513752       15.3550051466       15.5162471621
  H        21.4120903410       14.6970422172       15.2017086583
  C        20.8393062690       16.1387372544       13.8454239451
  C        13.0547669517        7.2696641617       18.7857401125
  S        20.1228173729       14.4631623059       -5.1159239354
  C        19.4565401887       17.5278634447       -4.8066529577
  H         8.8721226618       12.3330838783        7.5647180712
  H         8.4794826267       11.8812040666        9.2226022325
  C         7.2381526870       13.4157588573        8.4659135439
  H        20.0112941942       16.8544055732       14.0009304989
  H        20.9138115305       15.9465688925       12.8179953247
  C        22.0418293734       16.9870695640       14.2440564117
  H        13.3693789397        6.2616247798       18.8042813073
  C        12.5278463377        7.6399440661       19.9692810636
  H        20.2404132903       17.2871294804       -5.5110371557
  H        19.8022459916       18.5251527613       -4.3955771446
  C        18.0649228191       17.4385242079       -5.5597278794
  H         6.5518922450       12.9054880083        7.8176898475
  H         7.5303116979       14.3820099080        8.0081526623
  C         6.3886633335       13.6525752704        9.7706772349
  H        22.8828525239       16.3477684058       14.2848897613
  H        22.2812900439       17.7596309477       13.5246360116
  C        21.9502292874       17.6422275712       15.6811837701
  S        12.1438002230        9.2130329983       20.5059252321
  C        12.2831885705        6.6014698416       21.0372362094
  H        18.2009852557       17.9516938226       -6.5355560960
  H        17.3075459177       18.1242459027       -5.0982560214
  H        17.7136213269       16.4019915709       -5.6961426006
  H         5.3203527773       13.5928962216        9.6209976389
  H         6.5473617681       12.8776230693       10.5236033834
  H         6.7316810173       14.5682446293       10.3095352590
  H        22.8289071298       17.4845577928       16.3142054543
  H        21.6870067572       18.6892596461       15.6415857441
  H        21.2607313980       17.0780369245       16.2761459313
  C        11.6553132831        8.5157720710       22.0336512566
  N        11.7839987475        7.1699957777       22.1377624805
  O        12.5373934293        5.3984632574       20.8922898250
  S        11.0879779158        9.4006988817       23.4582775280
  C        11.6715021633        6.3873409427       23.3739597996
  H        11.6157788674        5.3629812212       23.0404444938
  H        10.8025969761        6.5453175441       24.0236062247
  C        12.9489724524        6.6925831204       24.2820548396
  H        12.7247424758        6.6934104804       25.3677684798
  H        13.3633222480        7.6497145221       23.9928466913
  H        13.7586717436        5.9282897344       24.1225578046
