352
 i =     6600, time =     6600.000, E =        27.1786281136
  H        11.5599256846        7.6584766712       32.2247722420
  C        11.4348791154        6.6097104553       32.2272359082
  H        12.4331885203        6.2541052566       31.8982683862
  C        10.4375008487        6.2564525571       31.1713714747
  C        10.9609878339        6.1346744508       33.5923213873
  C        11.1113757507        5.8881869740       29.8408517553
  H         9.8449026478        5.3716374911       31.4801913257
  H         9.7632350304        7.0402199620       31.0431226291
  H         9.9390149658        6.4857586178       33.7061893037
  H        11.1032707846        5.0557071791       33.8384861020
  H        11.5461394834        6.6814368401       34.3230544886
  C        10.0868507451        6.1732317259       28.7364979856
  H        11.5514308834        4.9153321466       29.7514969314
  H        11.9152640155        6.5718998653       29.6900776211
  C        10.6520688833        6.0050938987       27.3392333708
  H         9.4819771847        5.3395109485       28.9503310867
  H         9.5208530364        7.1179404600       28.9522832535
  C         9.7102982068        5.2621290402       26.4043229018
  H        11.6536659749        5.5224286033       27.5269078704
  H        11.0575556249        6.9087569707       26.8343349950
  C         8.5720666827        6.0603870173       25.9543405637
  H        10.2763760906        4.9807289946       25.5564382800
  H         9.4320904047        4.3556907002       26.9458628617
  C         7.3753106542        5.2734637837       25.3191932066
  H         8.1707693965        6.6337233625       26.7946317010
  H         8.9937796875        6.8817104387       25.3137529827
  C         7.0472174302        3.9442774983       26.0767702218
  C         7.7999288239        4.4950570411       24.0772627318
  C         6.0709231027        6.1568424944       25.0455438005
  C         7.2839370020        2.8600745225       25.2934512256
  C         6.5046275524        3.6958619506       27.3215110048
  C         7.7385153209        3.1699532986       24.0441097520
  C         8.2890208849        5.1677172864       22.9997710488
  H         6.1647274558        6.9064830519       24.3132288927
  H         5.8691495515        6.8737044181       25.9104650504
  C         4.8914473368        5.2773616702       24.6784155073
  S         6.9792520716        1.4187793399       26.1820196820
  C         6.4476875071        2.3258879734       27.5662409676
  H         6.4157873441        4.5422222959       27.9049509780
  C         8.2530255420        2.5315032510       22.9366856463
  H         8.3384497170        6.2413088663       23.0183301916
  C         8.6422947045        4.5649244102       21.8529779475
  H         5.0522496523        4.7997194158       23.7178650215
  H         4.7004400761        4.3676558781       25.3299685731
  C         3.6015239201        6.0927754309       24.4480322482
  C         5.9664820106        1.7078684820       28.8250416487
  C         8.6634708057        3.2397840468       21.7689411702
  H         8.3120112513        1.4045013361       22.8408143893
  C         9.0555122266        5.0425688240       20.7116823950
  H         3.1377939939        5.6889752453       23.6639953260
  H         3.7800901803        7.0999418189       24.0951685363
  C         2.6616048386        6.4363747267       25.6740961894
  C         5.8800196915        0.3038966367       29.1597027216
  C         5.6577658238        2.5926974369       29.9615609022
  C         9.1545761087        2.5664994024       20.4982663189
  C         9.3089548313        3.9988944520       19.8133822757
  S         9.2733143169        6.5993245320       19.9603259246
  H         1.7415004541        7.0076748283       25.4139826046
  H         3.1646626754        7.1286782656       26.4250638218
  C         2.0830840350        5.0977241206       26.3739630655
  N         6.2860825705       -0.7358092128       28.3060964753
  C         5.6660838270       -0.1483117703       30.4254356845
  C         5.3314777542        2.0962311174       31.2122825382
  H         5.7202721739        3.6652502333       29.8863096586
  C         8.0620611889        1.7575489883       19.6808588165
  C        10.4679448156        1.7254002766       20.6200888656
  C         9.7092105368        4.4769602044       18.5378076117
  C         9.8512046141        5.8443015197       18.4786844181
  H         1.4751861195        4.6334260093       25.5551522459
  H         2.9021623776        4.4161992827       26.6322668654
  C         1.2251046855        5.3661317802       27.5876555803
  S         6.0967248382       -2.1558864521       29.0982935071
  N         5.8275103731       -1.5503165029       30.5710046195
  C         5.4020173074        0.6563827629       31.5584026289
  H         5.2415442206        2.8907570729       31.9392797245
  H         7.7946514898        1.0062055336       20.3705267838
  H         8.5351065396        1.2036017614       18.8447189096
  C         6.8943903295        2.5301415475       19.1183753610
  H        10.5615011706        1.2817036252       19.6152649812
  H        10.4752967668        0.9003953762       21.3211844541
  C        11.7780965496        2.4465369489       20.9325484147
  H        10.0473903944        3.8359182011       17.7489124945
  C        10.2530296882        6.5666296286       17.2850063339
  H         0.5255155162        4.5597629032       27.8496722638
  H         0.7141188301        6.2801044395       27.3905040951
  C         2.0261721148        5.4910589487       28.9301298106
  C         5.2237618509        0.0502487100       32.8361761730
  H         7.1008986802        3.0633779803       18.2159547828
  H         6.4188035368        3.1575814339       19.9262841531
  C         5.7939095492        1.5831610861       18.7178612970
  H        11.6358820995        2.9941067865       21.8355942077
  H        12.0034857959        3.0666467719       20.0363270530
  C        12.9218704624        1.5430486382       21.3277949197
  C        10.2040164416        7.9609734534       17.0489811087
  C        10.5981340652        5.8219366921       16.0829655366
  H         2.8064516220        4.6854429876       28.9349103552
  H         2.5406759478        6.4613371397       28.7963420733
  C         1.2237137485        5.4424152955       30.1951925635
  H         5.0499633452       -0.9897875155       32.9030690904
  C         4.9270847030        0.5069918551       34.0985307510
  H         5.6478532484        0.8738215862       19.5324299499
  H         6.0370417054        1.0370735532       17.8283959989
  C         4.4954127282        2.3331363318       18.5018954774
  H        12.6861439974        1.2109200089       22.3135761961
  H        12.9271151791        0.6601915555       20.7722790391
  C        14.2421887438        2.1108611301       21.1145174099
  N         9.7337938919        8.9059512459       18.0226553237
  C        10.4983754867        8.5442088466       15.8319588751
  C        10.8420282820        6.3884172426       14.8371773483
  H        10.9071661052        4.7882884423       16.0552670926
  H         0.2504799912        4.9673560990       29.9651973700
  H         1.6060320483        4.8408767719       31.0109381341
  H         0.9888815780        6.4190114444       30.4267095909
  S         4.6184401788        2.1745438448       34.5089766623
  C         4.7586153861       -0.4892208351       35.1695345890
  H         4.3670495457        3.0560030711       19.4006116090
  H         4.7574185855        3.0519894522       17.6845302180
  C         3.2152658602        1.5605845162       18.2964381444
  H        14.2892258388        3.2074430868       21.2767071191
  H        14.5168788162        1.9603159597       20.0939739595
  C        15.3263407938        1.5185562453       22.0219077386
  S         9.7530095409       10.3767070838       17.3324165917
  N        10.2236186310        9.9312174854       15.8419086071
  C        10.9122694220        7.8942039250       14.7318638418
  H        10.9740887566        5.7135122245       14.0629754393
  C         4.4519476165        1.5620487534       36.1411676218
  N         4.4966429485        0.2134163295       36.3021359696
  O         4.6834906611       -1.7142066923       35.0164584013
  H         2.4528384658        2.2849422378       17.9527263697
  H         3.0471335131        1.1970110708       19.2892122941
  C         3.1969391988        0.3160935959       17.3672384456
  H        15.0530210156        0.6267878663       22.5040879383
  H        16.1179108361        1.3391566569       21.3935048355
  C        15.6739786115        2.4550137951       23.2744611680
  C        11.0908369994        8.5869061171       13.4996293300
  S         4.0427905778        2.5567179459       37.5032671642
  C         4.3334039769       -0.5125680177       37.6069010781
  H         2.4076253878        0.3875184922       16.5913140844
  H         4.1058520863        0.4250539599       16.8448410911
  C         2.9793403206       -1.0109426075       18.0799861383
  H        14.7640516050        2.4875963471       23.8909273584
  H        15.8941642806        3.4254154803       22.9601668641
  C        16.8919568028        2.0486879183       24.1449106943
  H        10.6349934729        9.5078265975       13.5138374994
  C        11.6281283569        8.0752831966       12.3409824273
  H         3.7131939865        0.0996208761       38.3549111657
  H         3.7812706385       -1.4249818315       37.5337014020
  C         5.6598518514       -0.8410971253       38.1532877712
  H         2.4171093373       -0.9361205149       18.9607203701
  H         3.9228767428       -1.4299405487       18.3205779085
  C         2.3214990922       -2.1057612810       17.2388675937
  H        17.0193232513        2.6718277485       25.0806139266
  H        16.9096414651        1.0164961178       24.6454159220
  C        18.0776896057        2.1202366964       23.2013222543
  S        12.4787395617        6.5822624654       12.0732043971
  C        11.6342774355        8.9493077585       11.1685582958
  H         6.1647482204        0.0217690773       38.5345521102
  H         5.4698062404       -1.5305477048       39.0378294442
  H         6.2962459179       -1.4086671947       37.4471841186
  H         1.2469514316       -2.0336672334       16.9393407443
  H         2.6023031998       -2.9610477781       17.8463197832
  H         2.9756957819       -2.2053133662       16.3459674022
  H        19.0487557459        2.1594408031       23.6927494281
  H        18.0315420369        3.0159866636       22.6970606738
  H        17.9891104103        1.3740915091       22.4725196163
  C        12.7519524118        7.1536456689       10.4099137513
  N        12.3087794132        8.4013003561       10.2109644451
  O        11.1102392763       10.0660648779       11.1922423050
  S        13.6853048189        6.3525900954        9.2224273574
  C        12.3833561586        9.0476819121        8.8906195893
  H        12.4377762201       10.1230660698        9.0877661480
  H        13.2207522029        8.8012895740        8.2303411963
  C        11.1619831997        8.7244456668        7.9209463124
  H        10.3473044220        9.2789435389        8.2718733430
  H        11.4593393899        8.9211318744        6.9178069404
  H        10.9117307186        7.6879989981        7.9889425527
  H        21.1934119914       11.4338905462        3.6802934490
  C        21.6640941600       10.4371554532        3.7865204777
  H        20.8868459353        9.6846460416        4.0635346087
  C        22.6653451903       10.4858805881        4.9032862190
  C        22.2012518965        9.9528887302        2.4990409891
  C        21.8905193494       10.4890542802        6.2184110150
  H        23.2628230211        9.6027681871        4.9527027229
  H        23.3316752815       11.3791272223        4.8616664006
  H        21.3054590408        9.8248390060        1.8623111073
  H        22.6821564414        9.0103008439        2.6815896857
  H        22.8862115878       10.6112504336        1.9774908920
  C        21.0165632088        9.2262463660        6.4907536326
  H        22.5309133172       10.6054682229        7.1045059500
  H        21.2670653193       11.3599657795        6.2854237890
  C        20.2823799212        9.4065022706        7.8328480888
  H        21.6506155520        8.3527776070        6.5339031547
  H        20.2234122889        9.0692433718        5.7702644148
  C        18.9539265481       10.2024190768        7.7821682582
  H        20.9784619137        9.7813750079        8.5959416279
  H        19.9452859578        8.3693202201        8.2947883121
  C        17.7631383901        9.5067431824        7.1348687153
  H        18.7065724210       10.5214730613        8.7564261328
  H        19.1133029602       11.0947024620        7.2131932684
  C        16.4874240393       10.3245067830        6.9929302848
  H        17.5565904631        8.6537200584        7.8868326840
  H        17.9720661248        9.0990961020        6.1063894027
  C        16.8460837841       11.6920757706        6.3092678577
  C        15.9850811464       11.1248926110        8.1910438921
  C        15.4094204227        9.5316852550        6.1428650252
  C        16.6107959294       12.8245905809        7.0554083871
  C        17.4725419667       12.0355382094        5.0699812982
  C        16.1038054868       12.4946172167        8.2778026259
  C        15.6543029119       10.4579550050        9.3887451662
  H        15.9461318525        9.0628839335        5.2747164228
  H        14.9491845886        8.6998678502        6.6860166024
  C        14.2154163392       10.5242183934        5.7581024910
  S        17.1639060650       14.2432718123        6.2564383822
  C        17.6160409675       13.3841940559        4.9138846801
  H        17.5817810163       11.3123664706        4.3162001376
  C        15.7684929512       13.1243528919        9.4642543338
  H        15.6727782338        9.4449789006        9.5849178744
  C        15.3118979071       11.1073588080       10.5633596421
  H        14.5302909236       11.3808479522        5.2157740835
  H        13.6564899946       10.8635548584        6.5972205617
  C        13.1305086424        9.8268522320        4.9684398374
  C        18.0772938905       14.1162883460        3.6839742163
  C        15.3285729136       12.4495919868       10.5665428660
  H        15.7473590491       14.2561276079        9.5168087609
  C        14.9866048358       10.7778322558       11.8059140633
  H        12.1859185358       10.3287532628        4.9048161313
  H        12.9354156719        8.8337905220        5.4090334169
  C        13.6191886218        9.6812528299        3.5233616803
  C        18.0737095826       15.5539139343        3.5362239393
  C        18.4485136905       13.2867130339        2.5202434526
  C        14.9909955886       13.1944819113       11.8383945353
  C        14.8243387833       11.8954971363       12.6319281866
  S        14.7596334118        9.3101020053       12.6719496316
  H        14.2235341244        8.7436017381        3.4550636520
  H        14.2565320443       10.4722116979        3.1337897672
  C        12.5152031511        9.5942771355        2.4600311697
  N        17.7256402134       16.5187236567        4.4988471203
  C        18.3958185798       16.1495903364        2.3396744392
  C        18.6984595237       13.9134071100        1.3475326881
  H        18.4196036295       12.2074233707        2.6975365030
  C        13.7783612964       14.0591655266       11.5939641383
  C        16.1297677759       14.0770021111       12.4140269764
  C        14.4816115496       11.5524018819       13.9210356654
  C        14.4330694734       10.2075001868       14.1677854771
  H        12.0927305350        8.5846858060        2.4745484798
  H        11.7541422599       10.2629820945        2.7281084316
  C        13.0338072991        9.8866831342        1.0411386211
  S        17.7493440660       17.9530992755        3.6924521105
  N        18.3831049600       17.4933968454        2.2970616898
  C        18.7274443399       15.3691502597        1.1933235559
  H        18.9980375872       13.2999468633        0.4521912901
  H        14.0809231815       14.8952210193       10.9593516347
  H        13.4598971662       14.5026844031       12.5276234157
  C        12.5463848816       13.2479175138       11.0850398832
  H        16.5088616998       14.8516442927       11.7300432071
  H        15.7972959467       14.6963077030       13.2163013985
  C        17.3220467433       13.1526470794       12.8521891104
  H        14.3253223642       12.3736802380       14.6563167525
  C        14.1440556331        9.5393699342       15.5032146268
  H        13.6393556935        9.0281986767        0.7522696064
  H        13.7154344387       10.7578620759        1.0316812731
  C        12.0129587791        9.8430290132       -0.0452102986
  C        18.8836853521       16.1040262753       -0.0335599910
  H        12.7950801242       12.8161851613       10.0595061163
  H        12.4426371435       12.4304631517       11.8120595389
  C        11.3671441319       14.2411200071       11.2049537099
  H        17.7095566931       12.5759974100       12.0502103432
  H        17.0923643652       12.5097227393       13.6786038381
  C        18.3923426661       14.0898363657       13.3381741428
  C        14.1281750756        8.1305822959       15.7332318320
  C        13.9066904023       10.3996474134       16.7366514358
  H        11.5782265058        8.8341408267       -0.0423373885
  H        11.1206271316       10.4660322996        0.1640842173
  C        12.6842814943       10.1620176931       -1.3944478861
  H        18.6747464260       17.1219605021       -0.0731203661
  C        19.0723158424       15.7635444599       -1.3500936494
  H        11.4535876814       15.0166359625       10.4669805681
  H        11.2056842176       14.8296376441       12.0966491901
  C        10.0385107020       13.3919837150       10.9180356310
  H        19.0555422327       14.2547896239       12.4716564653
  H        18.0544103493       14.9921328684       13.7490783550
  C        19.3243809495       13.4385597665       14.3593423909
  N        14.5168359771        7.1583378289       14.8125139532
  C        13.7060917299        7.5943135453       16.9238936691
  C        13.5858257776        9.8004705697       17.9434608997
  H        13.8594835478       11.4256996760       16.6022973497
  H        12.9949585580       11.2067266083       -1.3897893604
  H        12.0031029868        9.8822299393       -2.2252742844
  H        13.5345965948        9.5082463737       -1.6528476883
  S        19.3788104099       14.1531977130       -1.9440996983
  C        19.1027102232       16.8427156804       -2.4315378184
  H        10.1705949449       12.3236095114       10.9739355184
  H         9.3028983405       13.6234929761       11.6905287391
  C         9.4805846801       13.8333184446        9.5851217291
  H        19.6077371627       12.5093674640       13.8902083064
  H        18.7177129195       13.1680929913       15.2683070904
  C        20.5929288080       14.2330318895       14.6207892850
  S        14.3217927458        5.7303351313       15.5367172872
  N        13.7397798476        6.1839436056       16.9516336815
  C        13.4296959347        8.3325468700       18.0509859457
  H        13.2678139883       10.4253743642       18.7887507849
  C        19.5584054879       14.9533258089       -3.5015167745
  N        19.3938915900       16.2554426375       -3.5912893357
  O        18.8555554129       18.0212064584       -2.2441268566
  H         9.3868456280       14.9407254205        9.6168221099
  H        10.2871764346       13.7102831131        8.8168287721
  C         8.1999874035       13.0980737684        9.2069890665
  H        21.3611312276       13.5681165379       15.1087775495
  H        20.9900518547       14.4222283654       13.6028980293
  C        20.4981287756       15.4413373075       15.5079060275
  C        12.9338539434        7.5787855972       19.1188701999
  S        19.7030495136       14.0607698929       -5.0665077666
  C        19.4961532688       16.9204225707       -4.9071022840
  H         8.1785979453       12.7312918537        8.1918336790
  H         8.1882614622       12.2094589833        9.8399913232
  C         6.9027632959       13.9426633849        9.3120363499
  H        20.5729733160       15.1491933393       16.5237911551
  H        19.4524036229       15.8627356867       15.5941049664
  C        21.6155025594       16.5214191372       15.2480971588
  H        13.3236416326        6.6123167075       19.1165700526
  C        12.3818124911        7.9386239787       20.3135323772
  H        20.3717685595       16.6706403349       -5.4992039246
  H        19.6403590202       17.9783048892       -4.6425265028
  C        18.1463258423       16.8897857966       -5.6336351727
  H         6.4736150573       14.0133882458        8.3173139551
  H         7.2057860573       14.9372268610        9.5760607344
  C         5.7975223744       13.4520739317       10.3381023462
  H        21.5355912444       17.0817163389       16.2192248049
  H        22.5780149908       16.1659392814       15.2171359869
  C        21.2988438772       17.3498017862       13.9658523440
  S        11.9390016447        9.5408392997       20.8139979903
  C        12.3309022261        6.9132536967       21.3898441139
  H        17.6669465542       17.8156105346       -5.4686898130
  H        17.4752841149       16.1956713361       -5.2634272701
  H        18.2734105623       16.6360025848       -6.6274900945
  H         6.3066562578       13.1259306601       11.2610366889
  H         4.9827962183       14.1835892261       10.5815576643
  H         5.2440431918       12.5897712906        9.9933548135
  H        22.2817132089       17.6136578426       13.5564287962
  H        20.6498171272       16.8847667978       13.1600951879
  H        20.8999392167       18.2359017613       14.1732068438
  C        11.6015783720        8.7834384139       22.4250521980
  N        11.8764376600        7.4703886961       22.4949804978
  O        12.7989791373        5.7579653503       21.2845825076
  S        11.2713191308        9.7267579698       23.8465817109
  C        11.8221071738        6.6891170550       23.7135706380
  H        11.4660014301        5.7502183010       23.2685233337
  H        11.0387977755        7.0270543090       24.4442674849
  C        13.2851003171        6.6439519846       24.3072489980
  H        13.4864079455        6.5209972461       25.3803476445
  H        13.6555175748        7.6214619865       24.0274680966
  H        13.8789781492        5.9624440079       23.7092448194
