352
 i =    13800, time =    13800.000, E =        25.1039195995
  H        11.8972962650        7.5293727119       32.5069511084
  C        11.6571412420        6.4504740542       32.2788974119
  H        12.5390121126        5.9568938101       31.9370674648
  C        10.4886637145        6.2999540026       31.2421750954
  C        11.2736138455        5.7684026254       33.5914537934
  C        11.1129446989        6.2808765369       29.9008643153
  H        10.0357352042        5.3253934510       31.4159099927
  H         9.6621321263        7.0285359943       31.3399110599
  H        12.0984641373        5.4939345336       34.1328106774
  H        10.7782368364        6.4658596795       34.2366943479
  H        10.7232037010        4.7854745819       33.4287071280
  C        10.0975200270        5.8455985269       28.9305632911
  H        11.9052224320        5.5486500984       29.7454952632
  H        11.5059402590        7.3177632134       29.7780762514
  C        10.4882794010        6.0645744223       27.4436437991
  H         9.9539144220        4.7628670890       29.1341015888
  H         9.1941378021        6.4694077732       29.0791147828
  C         9.6415693377        5.2527597735       26.4900404597
  H        11.4983702164        5.6698536956       27.3834899390
  H        10.5564730656        7.0758876614       27.1454792750
  C         8.3716648955        6.0729006333       26.2838133325
  H        10.1583048091        5.2416972853       25.5005761848
  H         9.4794631917        4.1623456800       26.7045996071
  C         7.1689588023        5.3103365213       25.5884880347
  H         8.0611689395        6.3576856489       27.2609339964
  H         8.5871628206        6.9917303291       25.7017727937
  C         6.8390044649        3.9625333136       26.2875526615
  C         7.6085493845        4.5759264192       24.4451318431
  C         5.9924753992        6.1919758359       25.4503495257
  C         7.0803122387        2.8403673690       25.5304227065
  C         6.2820443718        3.6270988576       27.5044813684
  C         7.6149541009        3.2512635430       24.3090036735
  C         8.0501181806        5.3141442234       23.3280204662
  H         6.1862259388        7.0507119578       24.8826075447
  H         5.6960509631        6.6811707873       26.3750835696
  C         4.7985745047        5.4617041242       24.8684940561
  S         6.7319248126        1.3618077918       26.3859347825
  C         6.2516385271        2.2649369981       27.7804344036
  H         6.0705785143        4.4623812542       28.1284876642
  C         8.0300057310        2.6525226267       23.1318208776
  H         7.9505759329        6.3864067182       23.3478478612
  C         8.4121102737        4.7452192842       22.1230425211
  H         4.6554656061        5.0977499914       23.7764275433
  H         4.6378832422        4.5744732955       25.4461164816
  C         3.4715120039        6.2343459767       24.9085447139
  C         5.9091112565        1.5605191545       29.0386221975
  C         8.4743389934        3.3928461770       22.0395910192
  H         7.9565236181        1.6064761156       22.9348339307
  C         8.8086621168        5.1858417327       20.8696726702
  H         2.7561161012        5.6716521446       24.4316493672
  H         3.4002213755        7.0455902263       24.2201009403
  C         2.9151244830        6.5563210306       26.2619411398
  C         5.9480510361        0.1307353040       29.2855680951
  C         5.5905137039        2.4424674153       30.1811360022
  C         8.8380516796        2.7197307004       20.8454858228
  C         9.0520763160        4.0564053838       20.1134573249
  S         9.1757434873        6.6614760081       20.0219504106
  H         2.1926558542        7.3034015120       26.1074190367
  H         3.6452849800        6.9954451403       26.9627222475
  C         2.3008925302        5.3474566473       26.9715517696
  N         6.0186570304       -0.8270056056       28.2768367945
  C         5.6609628086       -0.3675546484       30.5415143103
  C         5.3519397518        1.9318456539       31.4504879249
  H         5.4730630114        3.5246829280       30.1108931550
  C         7.6770582479        1.9138880984       20.2033598234
  C        10.0987007095        1.9691481748       20.9321677366
  C         9.4812898379        4.4659283895       18.8302022262
  C         9.5886628311        5.8051030838       18.6091455313
  H         1.6454336484        4.8047203891       26.2551513902
  H         3.0478913911        4.6035183220       27.1977824301
  C         1.4806975279        5.6563259638       28.2357997451
  S         6.2172652086       -2.2512372324       29.1081237176
  N         5.8576419441       -1.7527855819       30.6361742461
  C         5.3584237688        0.5183787952       31.6718834051
  H         5.1311742621        2.5920605114       32.2213657330
  H         7.4132709712        0.9786250602       20.7866382397
  H         8.0420393458        1.6342991218       19.1885402322
  C         6.3591911422        2.6811122663       19.8082654735
  H        10.2657136552        1.4527929205       19.9751355207
  H         9.9558265255        1.2214243674       21.7258315317
  C        11.3431713701        2.7382290547       21.3915316496
  H         9.7594519739        3.6541672093       18.1156537186
  C         9.9070186612        6.5455387401       17.3134440214
  H         0.9153012650        4.8191117169       28.7439832589
  H         0.8149808153        6.4349484892       27.9860729427
  C         2.3687942079        6.0521252627       29.4205468003
  C         5.0950704948       -0.0446482834       32.9325172215
  H         6.5798094815        3.3824539566       19.0414062065
  H         5.9188871035        3.1828287072       20.6677631012
  C         5.1745594200        1.8913255735       19.2200605997
  H        11.3151020716        2.7087977408       22.4833075381
  H        11.3291159124        3.7795750745       20.9945244272
  C        12.6430091619        2.0814412958       20.8951133725
  C         9.9930470723        7.9790533680       17.1553964609
  C        10.1971186397        5.7662406052       16.1158439079
  H         3.0846003716        5.2760820449       29.5090012128
  H         2.8798521413        6.9372498838       29.2098971206
  C         1.5745269017        6.2265361424       30.7256416773
  H         5.1611028666       -1.0870646869       32.9035041957
  C         4.7000358623        0.4756803726       34.1390941955
  H         4.7298073349        1.4289409237       20.0463348159
  H         5.6775825585        1.1463484615       18.6025989457
  C         4.2041095671        2.6577774054       18.3962443006
  H        12.9289122215        1.2579612421       21.4839242480
  H        12.5235357342        1.7142135313       19.9019527328
  C        13.8136843190        3.0195679165       20.9861230578
  N         9.8026549988        8.8982745625       18.1743298389
  C        10.3427311460        8.5712821049       15.9578162287
  C        10.3624660902        6.3817533840       14.9239365171
  H        10.1199015139        4.6621509144       16.1252993529
  H         0.6470089525        6.7510377446       30.4670924028
  H         1.2785973125        5.1809970157       30.9658875503
  H         2.1219461120        6.5946494016       31.6165269732
  S         4.3793828695        2.0834607641       34.6327420484
  C         4.6666608993       -0.5040825923       35.2236893109
  H         3.8477277507        3.4869536573       18.9427173838
  H         4.5289718338        3.0067992147       17.4589240555
  C         2.9844164258        1.8390694291       18.1657272301
  H        13.4436998689        3.8815601672       20.4164938675
  H        14.6416096680        2.8427102116       20.3475404219
  C        14.3864395734        3.4417204851       22.3748852259
  S        10.0659486944       10.3584741907       17.6243350424
  N        10.3590201726       10.0172274474       16.0496256698
  C        10.5588146266        7.8529110330       14.7843182567
  H        10.4184735634        5.7488461865       14.0440101740
  C         4.2627951857        1.3762905997       36.2667544294
  N         4.3089386939        0.0300256950       36.3860587504
  O         4.6642638340       -1.7319699592       35.0267931518
  H         2.2293192436        2.3673721647       17.6068315128
  H         2.3281534868        1.4876753702       18.9904190372
  C         3.3339908391        0.6759519376       17.2514660279
  H        15.0763005309        4.3273447525       22.1590744707
  H        13.5756503291        3.8319280880       23.0339774469
  C        15.1464200088        2.2268329810       22.9675592456
  C        10.9048483193        8.5717721216       13.5951141774
  S         3.8874181875        2.3102201504       37.6778676213
  C         4.4216079512       -0.6925390327       37.6495021774
  H         2.5968036408        0.8250945210       16.4605373132
  H         4.3081879303        0.6843708727       16.8857943557
  C         3.1929329981       -0.6756559644       17.8478329968
  H        15.3623577354        1.5843200569       22.1192354937
  H        14.4986645018        1.7543301953       23.7240637294
  C        16.4620816093        2.5174451566       23.6371705838
  H        10.5790915919        9.5662008531       13.5867734582
  C        11.4422813588        8.0935286624       12.4168666947
  H         3.6417289348       -0.2510781343       38.2539086188
  H         4.1892607536       -1.7069177307       37.4574645032
  C         5.8851785514       -0.6987896762       38.2154115484
  H         3.1514657076       -0.5088515566       18.9183112697
  H         4.0810966707       -1.3083268565       17.6940740968
  C         1.8834304159       -1.3371524937       17.3772791906
  H        16.3647708692        3.3773821154       24.3162468221
  H        16.5508831487        1.6895556011       24.2636606398
  C        17.5912333737        2.6768918702       22.6765065118
  S        12.0171981546        6.5451305433       12.1230008353
  C        11.4865324841        9.0276692980       11.2336131553
  H         6.0035488404       -1.1489292236       39.2554683265
  H         6.5462923631       -1.3628439991       37.6854991038
  H         6.3079649301        0.2559582001       38.1356233208
  H         1.9462926870       -1.3754519175       16.2720376143
  H         0.9424615036       -0.9213354103       17.7651597564
  H         1.9625590644       -2.4043742214       17.7497511724
  H        18.5252708779        2.5483158081       23.2896304764
  H        17.6474319427        3.6219558557       22.2170413404
  H        17.5443868183        1.9691241952       21.8904347899
  C        12.4081953038        7.0793390164       10.4669757329
  N        12.1284037633        8.4262792048       10.2469588024
  O        11.0907767934       10.1549936910       11.2851633571
  S        13.3940226892        6.1860639081        9.3083656272
  C        12.3047042174        9.1887644584        8.9766956493
  H        12.6768508054       10.2268465844        9.1800675870
  H        12.9281315112        8.6504034679        8.2805101916
  C        10.9165387757        9.3627037620        8.2805422414
  H        10.3222878870        8.4017350231        8.2458468429
  H        10.2713748070       10.0431185037        8.7526219993
  H        11.0457114245        9.5621067855        7.2279601898
  H        20.8828831882       10.5013162551        4.0579313796
  C        21.7449020049        9.8344443954        3.9342059201
  H        21.2537887772        8.8510870806        3.6761406208
  C        22.5933667195        9.7078638358        5.2033458328
  C        22.6646965656       10.1853137456        2.8082941278
  C        21.8670582225       10.1651965218        6.4538648567
  H        22.8303313461        8.6540876589        5.4338882271
  H        23.5368525422       10.2371534448        5.1349131255
  H        23.6232703801       10.7302325289        3.0519086288
  H        22.1100665328       10.7015208486        2.0409301411
  H        23.0134939153        9.2404564416        2.3324854063
  C        20.9458387361        9.0625858201        6.9154298571
  H        22.5353746050       10.4184959579        7.2705189915
  H        21.2413272351       11.0468403042        6.3410178406
  C        20.2817320891        9.4585979518        8.2449017948
  H        21.6002426305        8.2067798971        6.9376838591
  H        20.2881407139        8.7314426911        6.1275775086
  C        19.0756332308       10.2921472747        7.9909313814
  H        20.9257528867        9.9231132455        9.0334526422
  H        20.0617195988        8.4473458396        8.6536199767
  C        17.7660283984        9.5357355319        7.6223986876
  H        18.8852038937       10.7172373760        9.0249439542
  H        19.3114509724       11.1721063191        7.3976196787
  C        16.5216139835       10.4304583092        7.3345362963
  H        17.5213714531        8.7591788116        8.3868587483
  H        18.1155976983        8.9773495261        6.7769027398
  C        16.8652017139       11.7869551927        6.6930697601
  C        16.0848729555       11.1935555841        8.5395598698
  C        15.3425815895        9.6729040002        6.5942400467
  C        16.6867491364       12.8904655352        7.4472613489
  C        17.3696271713       12.0933285334        5.4112982878
  C        16.2213409708       12.5381408252        8.6643537227
  C        15.6422140144       10.5313974061        9.6818728143
  H        15.7447375102        9.1863321660        5.7567878318
  H        15.0697225119        8.7605483872        7.2206412532
  C        14.1308975867       10.5882469534        6.1765355309
  S        17.1406611595       14.4054118035        6.6523430804
  C        17.4711587834       13.4788283985        5.2061038703
  H        17.6093616317       11.2932477557        4.7049891423
  C        15.8843439994       13.1822219925        9.8097924643
  H        15.6233428944        9.3990528206        9.6276294887
  C        15.2285819895       11.1855819249       10.8198660734
  H        14.4881871002       11.3985151161        5.5877306841
  H        13.6507248451       11.0068142704        7.0774576832
  C        13.0843480842        9.7231472644        5.3495271811
  C        17.9859169144       14.1538789552        3.9975635782
  C        15.3141212032       12.5394252837       10.8707303873
  H        16.0122600454       14.2409526490        9.8687137439
  C        14.7870444868       10.8929670666       12.0802839189
  H        12.1990225529       10.3226674858        5.2639877186
  H        12.8384597653        8.8421108072        5.9599118720
  C        13.6792317990        9.3675933995        3.9613554724
  C        17.9970188553       15.5832816304        3.7516662526
  C        18.5129531727       13.3586620962        2.8545922256
  C        14.8652501166       13.3125139404       12.0682953971
  C        14.5838719109       12.0109965723       12.8172666842
  S        14.5795107308        9.4929560866       13.0202685113
  H        13.8997193284        8.2969731655        4.0219999925
  H        14.5870305428        9.8631762957        3.5757780305
  C        12.6222017518        9.5065557128        2.9362649079
  N        17.5574268855       16.5623248908        4.6755349663
  C        18.4810080578       16.0877592374        2.5942107109
  C        18.9189443161       13.8346156894        1.6635835450
  H        18.6387950541       12.2729593915        2.9945651990
  C        13.5092340283       14.1131436274       11.7513258353
  C        16.0352952513       14.1735598184       12.6997508208
  C        14.0945368879       11.6945484529       14.1256899738
  C        14.0740299156       10.3868203285       14.4474356997
  H        11.9950519168        8.5979034452        2.9547141340
  H        12.0028319217       10.3626338049        3.1102218009
  C        13.2603117395        9.5955315049        1.6017200437
  S        17.7884407241       17.9797077752        3.9700857515
  N        18.3017078759       17.4688495876        2.5256927824
  C        18.8175809509       15.3199976443        1.4757633822
  H        19.4287886563       13.1215526465        0.9820480514
  H        13.7289883223       14.8309549626       10.9742989410
  H        13.2453769814       14.7529678716       12.5843943103
  C        12.2885144883       13.2740553316       11.2703185256
  H        16.4317635092       14.8571233743       11.9199097148
  H        15.5582367115       14.8037113357       13.4354388769
  C        17.2043570880       13.4502977630       13.3658334851
  H        13.8949339480       12.5149859385       14.8039337913
  C        13.8330285247        9.7483664151       15.7862813604
  H        13.6163538475        8.6483740775        1.3304690996
  H        14.0931568245       10.3040991894        1.5685604959
  C        12.2193195100        9.8386954785        0.5043702856
  C        18.9750328031       15.9799508767        0.2697545775
  H        12.4995334147       12.5904458605       10.4008172202
  H        12.0166798641       12.6525871030       12.0727873605
  C        11.1563117186       14.1156054167       10.8466422340
  H        17.6241379877       12.7382356888       12.6084816376
  H        16.9405935103       12.8377525513       14.2385081144
  C        18.2717590651       14.5037313709       13.8232082500
  C        13.6971193840        8.3758992635       15.9356522210
  C        13.6983983641       10.6584209369       16.9782361493
  H        11.5749006598        8.9534389925        0.3153131104
  H        11.5696457605       10.7050135453        0.7410419144
  C        12.9269376172       10.0470309558       -0.7915170885
  H        18.6045674588       16.9978863585        0.2699292839
  C        19.1686789477       15.6144802087       -1.0089413047
  H        11.3099106923       14.7474011041        9.9741687688
  H        10.9639374947       14.8331436331       11.6503679035
  C        10.0037588370       13.1655162547       10.4390871301
  H        18.6973293371       14.9801965229       12.9570743933
  H        17.8451934737       15.2763071953       14.4507578254
  C        19.4091423807       13.8278174314       14.5466413999
  N        13.8921220544        7.3238365361       15.0160722267
  C        13.4347788022        7.8820924775       17.1868428138
  C        13.4207139294       10.1798902837       18.2194924302
  H        13.9384048738       11.7169896983       16.8395992859
  H        12.4167577146        9.5908671182       -1.5448161456
  H        13.8964847708        9.6087008028       -0.8417191892
  H        13.0840735661       11.0516628268       -1.0582516946
  S        19.5729507181       14.0563721534       -1.5397328382
  C        19.1495749012       16.7033281583       -2.0791207915
  H        10.4795613490       12.3606003421        9.9031700169
  H         9.5833923731       12.7591292422       11.3621136488
  C         8.9245957899       13.7348838875        9.5295833224
  H        19.5353600852       12.8870081020       14.1136945238
  H        19.1402488263       13.6994049507       15.6192320838
  C        20.7398080429       14.6039007603       14.3988227642
  S        13.8192976386        5.9358802727       15.8325628139
  N        13.4608524991        6.4812050101       17.3095778522
  C        13.1435359287        8.6794594994       18.3119295409
  H        13.2670877545       10.8612299126       19.0296398902
  C        19.7890621935       14.8251348671       -3.0986002161
  N        19.6251296986       16.1708258771       -3.1772031451
  O        18.9460904016       17.8920265078       -1.8425222901
  H         8.4650532146       14.6833701175        9.8603073463
  H         9.3859785352       14.0691132175        8.5970629346
  C         7.9005677867       12.6495402802        9.2560776213
  H        21.6081441596       13.9360301379       14.3975663369
  H        20.7292081777       15.0314354301       13.4807275103
  C        21.0687732407       15.6291670150       15.4797322722
  C        12.7992237095        7.9332880245       19.5437185492
  S        20.3534773380       13.9794230032       -4.5202506826
  C        19.7923147574       16.9121041859       -4.4329736796
  H         7.7189636014       12.5421884693        8.1441225167
  H         8.3591563393       11.7457024057        9.6397967765
  C         6.5211023339       12.7358309650        9.8923564990
  H        21.4467008892       15.1078831720       16.3521254155
  H        20.1395181408       16.2234109790       15.6975175767
  C        22.2263878547       16.6195810462       15.0263156765
  H        13.1126602157        6.9491619101       19.6493276320
  C        12.1812841943        8.3772541693       20.6653145966
  H        20.6050859447       16.4355284993       -4.9562409389
  H        20.1353695825       17.9571876548       -4.2659787461
  C        18.4715683052       16.9143161691       -5.3027908240
  H         6.6247829383       13.0928694117       10.9335879477
  H         6.0755948808       11.7411940407        9.9525575909
  C         5.5064897577       13.6257737655        9.1619390171
  H        23.1111065459       16.3549546242       15.5088300065
  H        22.3562780671       16.5704553420       13.9618645740
  C        21.8580806466       18.0688000795       15.5128833996
  S        11.4955312132        9.9031915348       20.9751343195
  C        11.9979512855        7.4103101047       21.7676514408
  H        17.9772308709       17.8487334264       -5.1575658201
  H        17.7649064839       16.1428322167       -4.9953337199
  H        18.7304808147       16.7018787314       -6.2902257887
  H         4.5350733110       13.5450517151        9.6223566825
  H         5.8928918603       14.6735559507        9.1471693513
  H         5.2975732839       13.3145892355        8.1534200419
  H        22.6260314872       18.7480419060       15.2137198268
  H        21.0128819520       18.4477198943       14.9084557429
  H        21.7547671520       18.1914762424       16.5864788024
  C        10.9736347391        9.2176860931       22.5789905544
  N        11.4771362342        8.0116735965       22.8901593470
  O        12.5415199547        6.3042004970       21.7134407954
  S        10.1346629391       10.1338170329       23.8256402639
  C        11.3392837158        7.3972499999       24.2141213289
  H        10.6839006220        6.5972654457       24.0417477725
  H        10.9312462144        8.0314901502       24.9974217260
  C        12.7621796636        6.9734304216       24.7339708937
  H        12.9589424326        5.8967897444       24.5073449968
  H        12.8721157620        7.1366042779       25.7886187413
  H        13.5823504311        7.4923983175       24.2676374639
