352
 i =    97300, time =    97300.000, E =        24.9242631846
  H        10.6051812636        5.0872935115       31.8260970889
  C        10.4284412686        6.1004327511       32.1224219431
  H         9.4257145000        6.3480581277       32.3786430270
  C        10.6921362785        7.0891182264       30.8891375950
  C        11.3455023498        6.3258541438       33.3652572714
  C        11.2241882257        6.2992050348       29.6239785171
  H         9.8309736871        7.7293052531       30.5759367960
  H        11.4514756819        7.7992770462       31.1119697349
  H        11.0112232210        7.0912160698       34.0330464656
  H        11.4430737982        5.4522203808       33.9225872611
  H        12.3392201032        6.5743890117       33.0759238310
  C        10.2588754821        5.5082255662       28.7867077489
  H        12.0150284369        5.6347575743       29.9113405675
  H        11.7256745806        7.0540854452       29.0526351363
  C        10.7484193773        5.4394133443       27.3558619039
  H        10.3944360861        4.4576319716       28.8802247477
  H         9.1562958411        5.8545089406       28.8002595698
  C         9.6433596200        4.9775892115       26.4277630446
  H        11.5577386609        4.7006716005       27.4767854463
  H        11.2190602349        6.3160105183       27.0124494777
  C         8.4559522276        5.9419139431       26.0785393312
  H        10.1101097104        4.5577836630       25.6267698232
  H         9.0882038322        4.1452287472       26.9107389808
  C         7.2230555746        5.2979808072       25.2961842515
  H         8.1327220804        6.4100646603       27.0106648926
  H         8.7183448330        6.7819163084       25.4418948588
  C         6.7138949727        4.0082583027       25.9874211382
  C         7.7480026806        4.5346982299       24.0938378218
  C         6.0198442827        6.2326022623       25.0987262349
  C         6.9689601387        2.8925320149       25.1987224945
  C         6.1515102320        3.6825730793       27.1783576474
  C         7.6321168617        3.2020781369       23.9819112341
  C         8.3175401533        5.1004204458       22.9501276272
  H         5.3765577898        5.7554076872       24.2846991251
  H         6.3250940472        7.1423299153       24.7987807326
  C         5.1492007789        6.4731886544       26.2638473121
  S         6.4760302574        1.3671908412       25.9475146960
  C         6.0779872497        2.3614677851       27.3421051051
  H         5.9692442097        4.4099951722       27.8815305457
  C         8.0760990182        2.5055304228       22.8755944110
  H         8.5172197461        6.1289362635       23.1007026693
  C         8.6964789392        4.4731477682       21.8320664619
  H         5.7379992880        6.3826636622       27.2606529644
  H         4.7922987521        7.4862984923       26.3845587776
  C         3.8654182726        5.6100684049       26.1320118309
  C         5.8192345696        1.5619041519       28.5851493231
  C         8.6690108757        3.1253981726       21.7283441226
  H         8.0467246702        1.3935638435       22.9116833501
  C         9.2004032499        4.8576918676       20.6449033082
  H         3.9680898194        4.5152486539       26.1287974789
  H         3.2492708088        5.9412847550       25.2979429220
  C         2.9788389492        6.0098207439       27.3059277018
  C         6.0125881866        0.1525715362       28.8160791345
  C         5.3357362722        2.4023037081       29.7551738227
  C         9.1007013327        2.3544266408       20.5045699684
  C         9.3675253918        3.7483393136       19.8372762847
  S         9.6222263456        6.4025724625       19.8871689423
  H         2.3252926878        6.7921135959       26.8450945425
  H         3.5935877444        6.4786408445       28.0374267096
  C         2.2035985383        4.7916102102       27.6985541478
  N         6.4530160129       -0.8396439279       27.8713303211
  C         5.7888189089       -0.3461546704       30.0675240042
  C         5.2955091771        1.8442627523       31.0157012271
  H         5.0461025416        3.4852445761       29.6367826896
  C         7.9062203781        1.5425412448       19.9083743747
  C        10.3643706434        1.4545663868       20.8243018285
  C         9.9271872322        4.2066978192       18.5993255867
  C        10.0399204972        5.5731664378       18.4467722778
  H         1.8658963063        4.2638323254       26.8383085635
  H         2.8483116286        4.0441328150       28.1789707938
  C         1.1032141114        5.1687743654       28.6083452254
  S         6.1522324892       -2.2531631716       28.6655002418
  N         5.9699786746       -1.7013883051       30.1407282128
  C         5.3979688594        0.3865678525       31.2006717099
  H         4.8992997066        2.4474859065       31.7914801464
  H         7.5871545449        0.7291190719       20.5758334777
  H         8.3441569176        0.9481602720       19.0426564686
  C         6.6631987926        2.3634782363       19.4588794609
  H        10.6203929597        0.8389301442       20.0366195706
  H        10.2309273750        0.7276297879       21.6593131386
  C        11.5606192861        2.3709616712       21.0846914956
  H        10.0618447559        3.4808820733       17.8002999929
  C        10.3681129717        6.2487354778       17.1252262910
  H         0.3557545272        4.4352720285       28.6879699780
  H         0.5103856134        5.9231732601       28.0231054978
  C         1.5072985431        5.9352058128       29.9250559291
  C         5.2757324465       -0.3326097979       32.4447388583
  H         6.8634768469        3.0157994621       18.6999389139
  H         6.3260854675        3.0126057000       20.2486533541
  C         5.5682953859        1.4108717537       18.9356000339
  H        11.3135856491        3.1591762421       21.7809733546
  H        11.8227170993        2.8510302210       20.2060353507
  C        12.9119516222        1.6951367436       21.4561832081
  C        10.3748856586        7.6543460829       16.9886224786
  C        10.4627352908        5.4603843264       15.8462979213
  H         2.2472369354        6.6992458640       29.7510589163
  H         0.6015894119        6.4862005608       30.3306513548
  C         2.0807288982        5.0121251449       31.0378035017
  H         5.4214830179       -1.4019322360       32.5231232921
  C         5.1123543356        0.1340505337       33.7576766229
  H         5.1083226742        0.7844812498       19.7861621431
  H         6.0145046229        0.7514953436       18.1355046438
  C         4.4043989472        1.9926298536       18.1348659584
  H        12.9317177664        1.3880357685       22.4934813882
  H        13.0795127523        0.8255801160       20.8540136907
  C        14.0783929422        2.5512061450       21.3531694392
  N        10.2115667190        8.6336003607       17.9718087295
  C        10.7285441394        8.2300864998       15.7888396022
  C        10.7283411891        6.0210764540       14.6500465707
  H        10.2959899710        4.3690875031       15.7698530580
  H         1.2854702071        4.2181865425       31.2114112916
  H         2.9801792029        4.4756675601       30.6888665254
  H         2.3509097533        5.4488898118       32.0662917520
  S         4.9663345318        1.8554873472       34.3676056101
  C         5.0433275622       -0.8730541091       34.8392213328
  H         4.0311503587        2.7669175580       18.7063939447
  H         4.7665486456        2.3951098029       17.1942859783
  C         3.2331720627        1.0061748823       18.0537853318
  H        14.0426693040        3.3133260090       22.0863465920
  H        14.0995183358        3.1331659746       20.3044440664
  C        15.4522800374        1.9131931748       21.6612381574
  S        10.4714041692       10.1245010530       17.2674809011
  N        10.7855727634        9.6242173636       15.7709610810
  C        10.8845087440        7.4817324430       14.6139979291
  H        10.7648925133        5.5192691833       13.7395355066
  C         4.7137060599        1.0236164245       35.9571303066
  N         4.8368041514       -0.2941049618       36.0140225612
  O         5.2900139019       -2.0419121877       34.7135876450
  H         2.4318279171        1.4925427157       17.5861175348
  H         3.0123790253        0.6213919908       19.0146243747
  C         3.5039037923       -0.3363534245       17.3184432408
  H        15.5794237349        0.8971543883       21.4040584325
  H        16.1491395809        2.3540081777       20.9415534521
  C        15.9679007302        2.3580248996       23.0975702932
  C        11.2526316475        8.1694688682       13.4523951905
  S         4.3985704782        1.7814681165       37.4504524346
  C         4.7870090626       -1.2600385061       37.1497352338
  H         3.6532756676       -0.0607417195       16.3791635611
  H         4.3467006003       -0.7905093986       17.8186114697
  C         2.3537602046       -1.3573950688       17.4158658483
  H        15.2401470268        1.9633116912       23.8400950539
  H        16.2126530394        3.3522167255       23.3103303522
  C        17.3057922981        1.6270171888       23.4001069747
  H        10.9045345522        9.1635968924       13.4112556287
  C        11.9191242138        7.8765226870       12.2298219025
  H         4.1909248401       -0.8401899666       37.9348702363
  H         4.1530048791       -2.1762192396       36.8999221857
  C         6.2053285884       -1.6865394293       37.6493465072
  H         2.5419068067       -2.1194492818       16.6435856532
  H         1.4450620788       -0.8593272396       17.2304188413
  C         2.4098288436       -2.0844086552       18.7860715002
  H        17.5706363944        2.1562273493       24.2967896203
  H        17.0415431619        0.5926133359       23.6396317578
  C        18.3638185418        1.6377177816       22.3900576133
  S        12.5941849494        6.3603785810       11.7496272884
  C        11.9212256865        8.9863164730       11.1923635105
  H         6.3511775080       -2.5649524615       38.3130159986
  H         6.8775191076       -1.8839173223       36.7875028102
  H         6.6238334652       -0.7737911459       38.1048843844
  H         1.9205968871       -1.5672588899       19.6372815073
  H         3.3641560285       -2.3216020879       19.0536033973
  H         1.8592223064       -2.9469434223       18.7221824154
  H        19.3574899424        1.3510864995       22.7298075452
  H        18.5064840559        2.5827962590       22.0247581646
  H        18.1671509618        0.9616270467       21.5518586360
  C        12.9344737681        7.2472017395       10.2449486144
  N        12.5985029539        8.5078652520       10.1164250308
  O        11.4994332151       10.1006817155       11.3579263359
  S        13.8402345330        6.5057283097        8.8835428962
  C        12.7004878416        9.3035613475        8.8648063107
  H        13.0429390033       10.3580968024        9.1565166643
  H        13.3884371953        8.8091337431        8.1674363611
  C        11.3568857531        9.0924333078        8.0441951001
  H        11.2007920393        9.8053512538        7.2631690955
  H        11.3028581089        8.0944537486        7.6383864886
  H        10.4333315777        9.1740180332        8.6639304189
  H        21.6304757754       11.2902512518        3.8373434214
  C        22.2585141148       10.3853241763        3.8259890063
  H        21.4565142862        9.5711062507        3.7320137399
  C        22.9581614788       10.1906966824        5.1626196778
  C        23.2089479626       10.6139347554        2.5972620937
  C        22.0646855477       10.3830355184        6.3772008480
  H        23.4810439642        9.2044190017        5.1600959323
  H        23.7411372949       10.9345059359        5.2031068962
  H        22.6658765816       10.7458078722        1.6977761818
  H        23.8389127806        9.7320122004        2.4106400997
  H        23.8771117406       11.4946662688        2.7380930381
  C        21.1572653518        9.1692725871        6.6921658246
  H        22.6876108474       10.5770715197        7.2240023593
  H        21.4986293368       11.2560486952        6.2101232879
  C        20.3275183471        9.3373073753        7.9347229490
  H        21.8050386243        8.2463309842        6.8864658211
  H        20.5656934471        9.0045964665        5.8074862505
  C        19.1304983035       10.2947174392        7.7996825325
  H        21.0071770726        9.6199145989        8.7644446383
  H        19.9310403967        8.4306440904        8.3924381268
  C        17.9261444803        9.5729653013        7.2050421365
  H        18.9829169333       10.7818568169        8.8153757632
  H        19.4483169146       11.1357098377        7.1676810211
  C        16.8193321284       10.5478476132        6.9846688625
  H        17.6356219828        8.6356832173        7.8510670012
  H        18.1967073183        9.1476556525        6.2417158398
  C        17.3698741655       11.8425922239        6.2959292437
  C        16.5066306605       11.3318322388        8.1881268932
  C        15.6801980075        9.8859286330        6.2053240625
  C        17.2097897659       12.9508645223        7.0748636724
  C        17.9619283642       12.1345041596        5.0190033182
  C        16.6973547897       12.6788447171        8.3056798299
  C        16.0630170219       10.7091775886        9.3101617629
  H        16.0479750881        9.3756920478        5.3029261943
  H        15.3597760688        9.0410589341        6.8495196025
  C        14.5294676738       10.8312189826        5.8501816735
  S        17.8638569932       14.3538713257        6.4363308074
  C        18.1814420759       13.4800451357        4.9452446638
  H        18.1287670447       11.2690190580        4.2904438567
  C        16.3602563734       13.3004965414        9.4014501707
  H        16.0302084649        9.6437533831        9.2775154470
  C        15.6324379880       11.2839793215       10.4831928786
  H        14.7831328272       11.8257271594        5.5376374138
  H        13.9753278472       10.9145075983        6.7707541648
  C        13.6028581110       10.2842829405        4.7314626675
  C        18.4800955450       14.1880755207        3.6218597956
  C        15.7581184080       12.6565821514       10.5389880059
  H        16.4803430450       14.4245738192        9.4059503993
  C        15.3314060419       10.9611534658       11.7792149803
  H        12.6047816892       10.6906053911        4.8157795193
  H        13.5158193676        9.2523801204        4.9704482814
  C        14.0692062929       10.4888576592        3.2888514631
  C        18.5388128959       15.5626410036        3.4027986922
  C        18.7419782812       13.3618050844        2.3606535866
  C        15.4433986591       13.3951432661       11.8554635660
  C        15.2725439113       12.0857742293       12.5858992907
  S        15.1155602597        9.4556609728       12.5779816853
  H        14.7925731026        9.7627824823        3.0844450024
  H        14.4825788933       11.5351037679        3.2173122713
  C        13.0335517907       10.1785859494        2.2827226483
  N        18.3228276953       16.5120001791        4.4388772091
  C        18.7191682994       16.1857120125        2.1634588723
  C        18.9746106027       13.9848970170        1.0997201572
  H        18.6957120245       12.3203546152        2.4439275848
  C        14.1790165601       14.2733949430       11.5802997697
  C        16.6658938322       14.1362365949       12.3352245870
  C        14.9576186685       11.7409525176       13.9025033417
  C        14.8362128039       10.3676152831       14.0757454994
  H        12.5608957969        9.3135096232        2.6562675750
  H        12.2920343729       10.9762135636        2.4064716054
  C        13.6122134330        9.9983531468        0.8522853120
  S        18.1188300893       17.9319769249        3.7782666649
  N        18.4424926289       17.5255652298        2.2401755951
  C        18.9727994361       15.4918037284        0.9395527883
  H        19.0320733181       13.3545300742        0.2096539446
  H        14.3705250741       14.9615570146       10.7826997840
  H        14.0854800359       14.8124478432       12.5107401026
  C        12.9431004074       13.4037907155       11.3185483483
  H        16.8724945107       14.8950895680       11.5844260608
  H        16.3920771701       14.6652651854       13.2514774342
  C        17.9240193249       13.3070257631       12.6278678704
  H        14.8278317782       12.5058479313       14.5980678206
  C        14.3301314692        9.6571277368       15.3368867732
  H        13.9076568712        8.9686389816        0.7813325016
  H        14.5378059824       10.6529740258        0.7338529960
  C        12.5817643637        9.9668267972       -0.2679451188
  C        19.1649878433       16.1991126739       -0.2995196437
  H        13.1120467608       12.5762243788       10.5480159276
  H        12.6187831235       12.9016191031       12.2460553049
  C        11.8587808226       14.3315615489       10.7245204643
  H        18.1973016103       12.7918068893       11.7087258689
  H        17.7262909582       12.4913386220       13.3174440282
  C        19.0498035148       14.1196515391       13.1855126603
  C        14.1984871728        8.2382409022       15.4503443228
  C        14.0303537884       10.4687479829       16.5215632097
  H        12.1979348636        8.9792031116       -0.2724742827
  H        11.7241244845       10.7053379335       -0.0935631568
  C        13.1521584768       10.3723522023       -1.6104601957
  H        18.7643381900       17.1630410575       -0.1719517604
  C        19.4320015127       15.8724394788       -1.6072730539
  H        12.3909618497       15.1740274825       10.2480041659
  H        11.2048027680       14.7724971731       11.5231865643
  C        10.8921009935       13.5984724256        9.7582693251
  H        19.2146648935       15.0291378950       12.5854876722
  H        18.6423565464       14.4353549597       14.1627401554
  C        20.3181877109       13.3554255324       13.5303748383
  N        14.4858672733        7.3185299796       14.4188836591
  C        13.8582805563        7.6129563084       16.6734784324
  C        13.7272809290        9.8473705468       17.7425445125
  H        14.0381509275       11.5416763421       16.4686509803
  H        13.6727261380       11.3427536892       -1.6209544449
  H        12.3538176943       10.4100252187       -2.3622183513
  H        13.9130390976        9.7308600408       -1.9682409052
  S        19.5594310888       14.2935064383       -2.3411799886
  C        19.5935540046       17.0555917294       -2.5006389723
  H        10.3909420729       14.3383183307        9.1798460285
  H        11.4482091000       12.9318620989        9.0728511329
  C         9.8441915910       12.7650260662       10.3860602696
  H        20.6813276365       12.7986344688       12.6537595291
  H        20.1063536501       12.6693575822       14.3155099658
  C        21.4436015189       14.1653628854       14.1186784107
  S        14.3314129601        5.7853598579       15.1251688052
  N        13.8387418758        6.1944596212       16.6243999678
  C        13.6636834803        8.3770148197       17.8465912745
  H        13.4280998351       10.4845635640       18.5154584416
  C        19.6077063883       15.2551825486       -3.8175073613
  N        19.7608291257       16.5598174723       -3.6938697541
  O        19.6042966482       18.2301772543       -2.1190572356
  H         9.8551461817       11.8383075876        9.7851724354
  H        10.1759417823       12.5086876624       11.3914755136
  C         8.4186488417       13.2149469955       10.4476667101
  H        21.0908600231       14.5345965018       15.0952074563
  H        22.3355170794       13.5947236225       14.1179197565
  C        21.8600003015       15.3287328926       13.1787002094
  C        13.2702822397        7.6719040210       19.0454262868
  S        20.0566468671       14.4646713829       -5.2441155934
  C        19.8328661322       17.4229924949       -4.9102403216
  H         7.7974939973       12.4202158509       10.7942810682
  H         8.4005891679       13.9758824291       11.2021422880
  C         7.8970051524       13.6541059900        9.0736585374
  H        21.4142101202       15.1936548462       12.2257124324
  H        22.8984107373       15.2622361860       12.9862838305
  C        21.5854472667       16.7224909743       13.6901692890
  H        13.5308965802        6.6193051004       19.1418389919
  C        12.6753680383        8.0716429816       20.2031124471
  H        20.6448414029       17.0699366555       -5.4823323280
  H        20.1270963777       18.3101695968       -4.6050927873
  C        18.4479336083       17.3726798841       -5.5095005753
  H         8.0365720611       12.9410922573        8.3425534173
  H         8.3670074259       14.5267348071        8.6089535412
  C         6.4147622422       13.8401763545        8.9726405541
  H        21.7571672762       17.4167246652       12.8469450326
  H        20.5080114482       16.7393121019       13.9461788826
  C        22.5020745378       17.1910756303       14.8347066890
  S        12.0166580229        9.5946411907       20.6763287029
  C        12.4249595139        6.9424838844       21.1849517139
  H        18.0082569937       18.4061220342       -5.6043568728
  H        17.8060054560       16.7230188965       -4.9398052300
  H        18.5227093876       16.9210018257       -6.4618805425
  H         5.8548419831       12.9812262871        9.3457786094
  H         6.1472298567       14.7514039399        9.5300079514
  H         6.1227833877       13.9776307465        7.9076136797
  H        22.5837030004       16.3774990206       15.5737790603
  H        23.4632545195       17.3037076056       14.3795386808
  H        22.1425723142       18.1267479781       15.2260687590
  C        11.5204486310        8.7751986641       22.1817316203
  N        11.8259982548        7.4624860365       22.2456058375
  O        12.9558100679        5.8794226096       21.1457754639
  S        10.8339846536        9.6276760513       23.5155944657
  C        11.7101078191        6.7402069457       23.5518247722
  H        11.4527398547        5.7258589248       23.2414263385
  H        10.9679734195        6.9803488622       24.3131121187
  C        13.0378961837        6.7151530088       24.2372286093
  H        13.1203511439        7.5338122353       24.9227935873
  H        13.8961787496        6.7129843667       23.5413565482
  H        13.1788010698        5.7728202349       24.7287758399
