352
 i =    32000, time =    32000.000, E =        25.1771691359
  H        12.3746099835        5.3284996233       31.9155616542
  C        11.3008804486        5.5526009013       32.0767821192
  H        10.7532691355        4.8460989711       31.5847252766
  C        11.0700606162        6.8004568919       31.3106938488
  C        10.9558330653        5.6051228230       33.5104888506
  C        11.4542283947        6.5265940247       29.8423431638
  H        10.1294502697        7.2501892969       31.4953704041
  H        11.7494161568        7.4879263918       31.8562530030
  H         9.9401315873        5.8533278625       33.6756763191
  H        11.1114561540        4.6181206064       33.9227874139
  H        11.5868602321        6.3489921550       34.0561011699
  C        10.2809318400        6.1265380094       28.9892369720
  H        12.2478326853        5.7454142542       29.7801173978
  H        11.9319843756        7.4007345003       29.4783676686
  C        10.7654945151        5.8319648172       27.5098480285
  H         9.9030596131        5.2419353742       29.4272633937
  H         9.5352138940        6.8841219278       28.9446409916
  C         9.8420957042        4.9737265585       26.5470790649
  H        11.7332054981        5.3621431647       27.6210490954
  H        10.8520263118        6.7598130537       26.9607673728
  C         8.6306725798        5.9492904252       26.1613333106
  H        10.4086243112        4.7732713406       25.6348831658
  H         9.4600817673        4.0907971619       27.0398180167
  C         7.4732271516        5.2784709866       25.4284298171
  H         8.1589800439        6.3545570618       27.0881813261
  H         8.9364504398        6.8069391786       25.6104563839
  C         7.1749443342        3.9237885630       26.0784237306
  C         7.8163073042        4.5691161040       24.1383745735
  C         6.1465962914        6.0768880153       25.4340373350
  C         7.3857606168        2.8229719592       25.2321240561
  C         6.5000297444        3.5743119356       27.2925912093
  C         7.8823154634        3.2421069432       24.0234638319
  C         8.3203227019        5.2951809042       23.1136292439
  H         6.2840225671        6.9130547531       24.6976319447
  H         5.9513317727        6.3711413122       26.4778831525
  C         4.9879522462        5.2462380766       24.9197798140
  S         6.8931007170        1.3961564407       26.0340532191
  C         6.3804858751        2.2608278374       27.4038067537
  H         6.2762736018        4.3523948197       27.9984896413
  C         8.3113894210        2.7325217868       22.8252355989
  H         8.3032563186        6.4163733324       23.2300967162
  C         8.7376854274        4.7642667088       21.9486350746
  H         5.2137653190        5.0400933007       23.8336353910
  H         4.7901467526        4.3318475588       25.4445694487
  C         3.6189983364        5.9289127919       24.9772888761
  C         5.9640186352        1.5605253480       28.6686173978
  C         8.7127993056        3.3931715828       21.7055077846
  H         8.3082684792        1.6275516247       22.8291344670
  C         9.2446391858        5.2205678823       20.7052160135
  H         2.9369587123        5.3171195930       24.4484145985
  H         3.6901268278        6.8280077361       24.3452268657
  C         3.1306558355        6.3603098545       26.4292608535
  C         6.1596975779        0.2244911315       29.0004657617
  C         5.4350799601        2.4276915288       29.7779408538
  C         9.2137156634        2.7592648951       20.5053633707
  C         9.4749025091        4.1517084462       19.8492646729
  S         9.5718244834        6.7255034902       19.9496080976
  H         2.4253053933        7.1939793829       26.2778781328
  H         4.0136318414        6.7603729122       26.8956598947
  C         2.5702591920        5.1002929661       27.1385641643
  N         6.7049323238       -0.7139260234       28.0761320569
  C         5.8486451670       -0.3212125411       30.2492332971
  C         5.1571831286        1.8506023728       31.0267798537
  H         5.2190219902        3.5090168710       29.6349312447
  C         8.2252184589        1.9106566991       19.6494161814
  C        10.4964177367        1.9664660697       20.8241320824
  C         9.7955626433        4.5856350175       18.5653239276
  C         9.9141909502        5.9581184985       18.4417547884
  H         2.0271263671        4.5105462790       26.4125304487
  H         3.4061632178        4.4444089056       27.4561477884
  C         1.5442105998        5.5411784028       28.1827414028
  S         6.5750984572       -2.1816032445       28.7368230617
  N         6.2216989634       -1.6722969181       30.2543541457
  C         5.4070274982        0.4012439150       31.3194117779
  H         4.7575764395        2.5859031378       31.7200404595
  H         7.8902170384        1.0799448371       20.3044102700
  H         8.8656417015        1.6351790945       18.8291263060
  C         6.9288252743        2.7202899368       19.2474684554
  H        10.8060530793        1.2868667769       19.9408976743
  H        10.3079697315        1.2451193488       21.6787036145
  C        11.7399026132        2.8445089039       21.0479644800
  H         9.9580846018        3.7845725160       17.8679610892
  C        10.3329030266        6.6855693417       17.1930105079
  H         1.0927613116        4.6531569078       28.7299407506
  H         0.7102424800        6.0832535217       27.6910774451
  C         2.1445039581        6.1965204311       29.3856300715
  C         5.1022459233       -0.2104081367       32.5498701237
  H         7.1847219717        3.3072891029       18.3831137265
  H         6.5571133214        3.3263275514       20.0130849966
  C         5.8841296161        1.8013609732       18.6517444368
  H        11.6479393394        3.5477158462       21.8493073646
  H        12.0233822721        3.5016580106       20.2510623510
  C        12.9764145417        2.0292092122       21.3478131898
  C        10.3096205994        8.0686163710       16.9359402631
  C        10.6199430788        5.8800051865       15.9599287129
  H         3.0598237138        6.7283547918       29.1395876433
  H         1.5580295728        6.8563710261       30.0198062208
  C         2.5829772939        5.2115557792       30.3993515704
  H         5.2700430247       -1.2713962125       32.5577096451
  C         4.6815304624        0.3582013915       33.7251193482
  H         5.5704555392        1.0993018152       19.4503275059
  H         6.3689983774        1.2326417585       17.8678058649
  C         4.6956559180        2.6630442484       18.1222389859
  H        12.8172728704        1.4824277290       22.2853925811
  H        12.9745785798        1.1754346214       20.6266717039
  C        14.3151622256        2.8313536240       21.3762583792
  N         9.8681420325        8.9971959546       17.9781009942
  C        10.4128785048        8.6656030040       15.6743818431
  C        10.9224748669        6.5097783352       14.7179472464
  H        10.7363863243        4.7991555754       16.0528926019
  H         1.7703197280        4.6782770264       30.9566451806
  H         3.2262807512        4.4044108400       29.9965140062
  H         3.2079560402        5.7403529784       31.0880022468
  S         4.4664894345        2.0256509854       34.1206895854
  C         4.5259219355       -0.6022479521       34.8592029218
  H         4.4459149333        3.5522009837       18.6682951424
  H         4.7227526253        3.0829728432       17.1680936744
  C         3.4203396928        1.8231813209       18.1788574656
  H        14.1174794289        3.6913186472       20.7878784467
  H        15.1449610395        2.3911013166       20.8412246716
  C        14.8349597591        3.1966374009       22.7282667837
  S         9.8000631842       10.4803614167       17.3254762038
  N        10.1217648686       10.0498626571       15.7407814817
  C        10.8054484492        7.9997593083       14.5177093114
  H        11.0468821353        5.8167203229       13.9016014353
  C         4.0967797647        1.4254306886       35.7742484839
  N         4.0984181741        0.0911085666       35.9083876569
  O         4.5770393593       -1.8242702766       34.8022512750
  H         2.5270701820        2.2885625282       18.3848785918
  H         3.5146756908        1.3217109828       19.2138090660
  C         3.3284736282        0.8429689192       16.9358460861
  H        15.4962299195        4.1411009444       22.6143528571
  H        13.9445177293        3.4003854773       23.3292197222
  C        15.7074801266        2.1075073371       23.2969949547
  C        11.0643860060        8.7599444690       13.3922833279
  S         3.7490258299        2.4972221940       37.1211601458
  C         3.8648698190       -0.4614749636       37.2441650861
  H         2.5848659689        1.1055658351       16.1913769218
  H         4.2180974874        0.9124243957       16.3801539262
  C         3.1111312815       -0.6292299506       17.4279276848
  H        15.5918449456        1.3238979993       22.5987495901
  H        15.2519953444        1.6705079169       24.1912589860
  C        17.2229483736        2.4789983065       23.5083393678
  H        10.8865291693        9.8284188600       13.3309113823
  C        11.6144558598        8.3636992562       12.1707803831
  H         3.0009195141        0.0492875988       37.7974426842
  H         3.5691492224       -1.5364284537       37.1905900832
  C         5.2330020958       -0.3947115083       38.0178100766
  H         3.9517283354       -1.1091978397       17.8886910345
  H         2.9249556682       -1.2894216273       16.6183121721
  C         1.9324791563       -0.7670372247       18.3823454823
  H        17.2993075444        3.5149712649       23.8329682493
  H        17.6292451569        1.8573133748       24.2675163690
  C        18.0329491740        2.3009442780       22.2475254971
  S        12.1768957807        6.7591090139       11.7455481381
  C        11.5200531207        9.2645112970       11.0518855432
  H         5.8564255950        0.4140146597       37.6455658821
  H         5.0134312902        0.0200574879       38.9922389593
  H         5.8210696822       -1.2856455297       38.1320781613
  H         1.4042635360       -1.7728417432       18.2997085386
  H         1.2834653727        0.0995682781       18.1979095524
  H         2.4173583242       -0.5718116213       19.3498005115
  H        18.4486282029        1.2736720219       22.0370271057
  H        18.9010702744        2.9691085064       22.3459505036
  H        17.4916197542        2.6410751286       21.4053967946
  C        12.2578380190        7.3531393463       10.1270385893
  N        12.0320758752        8.6625999304        9.9735960272
  O        11.0651232078       10.4123220113       11.1351899291
  S        12.8824480656        6.3492661061        8.8253397223
  C        11.8075097553        9.3958510333        8.7165620548
  H        12.0301356689       10.4862530274        8.8532537925
  H        12.5839966698        9.1591104450        7.9840559038
  C        10.4411860231        9.1883970629        8.1242161278
  H        10.4180236541        9.7430783894        7.2224347714
  H        10.3330047240        8.1386342090        7.8248720553
  H         9.6742948488        9.4713196052        8.7787256148
  H        21.0634368234       11.0566814423        3.5440262637
  C        21.8600048633       10.2857651564        3.6216799248
  H        21.3184640425        9.3615155601        3.7031417462
  C        22.7924632511       10.4446997946        4.8497335123
  C        22.6360485846       10.2157425533        2.3258711297
  C        22.1750655395       10.5247500778        6.2362988666
  H        23.4937670632        9.6648161419        4.8197287555
  H        23.3926990135       11.3436183549        4.7525130149
  H        23.0369617854        9.2296001934        2.1542899157
  H        23.4831146710       10.9613338962        2.3675064177
  H        21.9275643860       10.3966873413        1.4541641369
  C        21.4562539813        9.3387974968        6.7263913534
  H        22.9599041030       10.8872358611        6.9192894498
  H        21.5190743063       11.3792837412        6.1887720994
  C        20.5503915249        9.6666903402        7.9711103790
  H        22.0820154550        8.5263483416        7.1208293843
  H        20.8496374339        8.9649640665        5.9096322320
  C        19.2774435120       10.5571142370        7.7973584148
  H        21.1140805022       10.0370636074        8.8401860019
  H        20.2693787000        8.6579142688        8.2097827601
  C        18.0085854511        9.9457299085        7.1987714258
  H        19.0304836411       10.7491999041        8.7552908516
  H        19.4294219965       11.5243578392        7.3235806406
  C        16.8241980990       10.8354512898        7.0570577760
  H        17.9168372632        9.0505687027        7.8867855977
  H        18.1424323053        9.5667728169        6.1837983369
  C        17.2173218292       12.1541286388        6.5002822128
  C        16.4583928063       11.5141854126        8.3492985272
  C        15.6700980806       10.0996731919        6.2829811421
  C        16.9638017883       13.2968888740        7.2909119328
  C        17.7207927146       12.5395984944        5.2763211192
  C        16.5048394782       12.8797111493        8.5313342123
  C        15.9178804536       10.8715440679        9.4676021273
  H        16.0033369042        9.7430200950        5.3289235872
  H        15.4682818495        9.2770376237        6.9207045786
  C        14.4429842408       10.9514028904        6.2077051036
  S        17.4204137708       14.7708621198        6.4904846930
  C        17.8244573084       13.8835005173        5.0883891394
  H        17.7872764467       11.7675325170        4.5376385935
  C        16.1463457649       13.5135091131        9.6676555860
  H        15.7968064586        9.7870874220        9.3540793331
  C        15.5220225227       11.4646790499       10.6538775305
  H        14.7690643759       11.8599050003        5.6930428618
  H        14.1300402488       11.2927653303        7.1816014346
  C        13.2197075133       10.3897167515        5.5166291288
  C        18.3179109751       14.5058912590        3.8429191766
  C        15.6686402269       12.8278028449       10.7884728912
  H        16.3234392204       14.5839974749        9.7047166423
  C        15.1120974985       11.1252571944       11.9484531259
  H        12.4224518159       10.9230991196        5.9307295268
  H        13.1144032735        9.2981623349        5.6656180371
  C        13.4426580227       10.6604419018        4.0094548396
  C        18.2951258120       15.9219868762        3.5690983335
  C        18.8537985293       13.6978191574        2.7367476218
  C        15.3011444309       13.5659351400       12.0137632568
  C        15.0360485285       12.2245023652       12.8200186846
  S        14.7472420563        9.7018337333       12.7666475199
  H        14.4433200015       11.0839130001        3.8480872560
  H        12.7079921795       11.3232650983        3.6890528319
  C        13.4386191635        9.4993330477        3.0581061674
  N        17.9152525210       16.9473189167        4.4990059707
  C        18.5647102468       16.4584596189        2.3189496481
  C        19.1113591676       14.2129346187        1.4902491040
  H        19.0184987689       12.6643047282        2.8973424418
  C        14.0678089972       14.4579210815       11.7615462676
  C        16.5151629374       14.4841709997       12.4367315959
  C        14.5556958949       11.8663803889       14.1119754164
  C        14.3104871525       10.5306332278       14.2281362955
  H        14.0443255515        8.6518008432        3.4360440120
  H        12.3669927766        9.0662820052        3.0691490941
  C        13.8882214971       10.0032157924        1.6811999378
  S        17.9631462133       18.4351356624        3.7719562619
  N        18.5031437840       17.8741871361        2.2874357363
  C        18.8786493495       15.6942969270        1.1896798312
  H        19.4838314384       13.5615585308        0.6760809220
  H        14.3331491218       15.3426465062       11.0995938776
  H        13.7758661056       14.7857143676       12.7929101230
  C        12.9179347776       13.6370169847       11.2507640137
  H        16.7848174014       15.1652660545       11.6496380011
  H        16.2909931368       15.2897248815       13.1901816783
  C        17.7644329632       13.6525512637       12.7017737571
  H        14.5453129677       12.5704226359       14.8972786399
  C        13.9215862204        9.8578907724       15.4965261943
  H        14.9242157885       10.1564067856        1.7300463707
  H        13.4108311892       10.9850023591        1.4971917280
  C        13.4673814576        9.1399526936        0.5248030570
  C        19.0896131843       16.3243840119       -0.0456887684
  H        13.0793121194       13.2250599414       10.3031772571
  H        12.6514503168       12.8647421668       11.8921184903
  C        11.6833845670       14.4588083073       11.0239247966
  H        18.2239538549       13.2511738056       11.7665453311
  H        17.5510191473       12.7404272086       13.2698564765
  C        18.7210079672       14.5116598240       13.3854063259
  C        13.8033148897        8.4250369512       15.6719811244
  C        13.9246031906       10.6330971632       16.8031309448
  H        14.2536362400        8.4353031006        0.2589265028
  H        12.5311415207        8.6064660037        0.5797787264
  C        13.3455786547       10.1006794785       -0.6919566235
  H        18.7920519126       17.3834440509       -0.0770474370
  C        19.3459096359       15.8458854233       -1.2951752335
  H        11.8144650241       15.2979452524       10.3563243021
  H        11.3619091484       14.8553886106       11.9561741797
  C        10.5068502349       13.5385647018       10.7144503203
  H        18.9475687701       15.3638795591       12.7542559771
  H        18.2982757990       14.9599425991       14.2931335433
  C        20.0690591202       13.7835083095       13.6546596669
  N        14.1070020777        7.4810037822       14.6697639206
  C        13.6822489076        7.7905594689       16.9324896824
  C        13.4967411098        9.9804931285       17.9433675208
  H        14.1164044411       11.6776631493       16.8130281402
  H        14.3413406295       10.2018453811       -1.0248775984
  H        13.0016342535       11.0984919603       -0.5323024620
  H        12.8205369504        9.6899014737       -1.5872791780
  S        19.7465574636       14.2103305303       -1.7026673823
  C        19.4563161887       16.7541763931       -2.4423401890
  H        10.8487816724       12.5780773726       10.3131470646
  H         9.9104873181       13.3882461783       11.5921814860
  C         9.4858604489       14.1443964788        9.7845430454
  H        20.4341209150       13.4247787112       12.7335508656
  H        19.8540601533       12.9851551618       14.3222970240
  C        21.2122335167       14.5991266130       14.3912564067
  S        14.1500480130        6.0694019627       15.3874522873
  N        13.8601840912        6.4185542937       16.8802704916
  C        13.3873348276        8.4747879537       18.0820139779
  H        13.5663797482       10.6081059007       18.8045997399
  C        20.0142615956       14.8116792465       -3.2358301947
  N        19.8568632159       16.1100441240       -3.4961519734
  O        19.1678496609       17.9208264398       -2.4526995588
  H         8.8833401993       14.8843711412       10.3438654034
  H         9.9029362207       14.6514817398        8.9682618006
  C         8.4945180160       13.1046714594        9.1080726711
  H        21.8400518364       13.9169211709       14.9087862531
  H        21.9209407458       14.9487441940       13.6235626330
  C        20.7235240065       15.7550291337       15.2886263257
  C        13.1467306386        7.8082241245       19.2862120740
  S        20.5031899147       13.8090994829       -4.6661737123
  C        20.0689665764       16.7572500795       -4.8386238338
  H         8.7687357584       12.9508877864        8.0626705954
  H         8.5569493540       12.1370436577        9.4933084646
  C         7.0697225393       13.5035182722        9.0363883418
  H        20.5678289843       15.4762606516       16.3789882781
  H        19.8714243125       16.3723759849       14.9764417845
  C        21.9164587242       16.7363084206       15.3577510370
  H        13.6061906546        6.8333115628       19.4351652952
  C        12.5144821246        8.1297593344       20.4945190842
  H        20.6752305756       16.2684677663       -5.5476929765
  H        20.5756071706       17.7334357941       -4.7430787553
  C        18.7026987293       16.9060672081       -5.5892037581
  H         6.5437463960       13.1560842714        8.1424691349
  H         7.0093329255       14.6181401443        8.8927534767
  C         6.3531007865       13.1209897268       10.3132169476
  H        21.8777062295       17.2144736895       16.3153383505
  H        22.8804659761       16.1777020148       15.3438298984
  C        21.9633087913       17.7103346834       14.2152380949
  S        11.8804658148        9.6786227823       20.9750907532
  C        12.3664337807        7.0498934645       21.5341118089
  H        17.7996327979       16.2172641667       -5.3699462662
  H        18.9529295365       16.6812072866       -6.6315792269
  H        18.3472497420       17.9185569895       -5.6396164632
  H         6.8395805146       13.6477986706       11.1584929488
  H         5.3260216693       13.3915803568       10.0661994837
  H         6.4037834139       12.0546544878       10.3880716114
  H        21.0653486748       18.4166896673       14.2771391549
  H        22.8620815263       18.3595346184       14.2009615165
  H        21.8728504828       17.2317370464       13.2524984139
  C        11.3576465301        8.8915570844       22.5140647284
  N        11.7996770357        7.6332893773       22.6174265614
  O        12.7387832145        5.9023644505       21.3372356903
  S        10.5639346427        9.6914148573       23.9150042686
  C        11.6410483879        6.7945680718       23.8316604365
  H        11.6226088248        5.7748249293       23.6128447998
  H        10.7685529864        7.1134247283       24.4679045789
  C        12.8825702494        6.9695199014       24.8017116921
  H        13.8007455609        7.2423452384       24.2239109804
  H        13.1739731608        6.0720549634       25.4312170634
  H        12.5987844186        7.7893585001       25.4660392156
