352
 i =    34700, time =    34700.000, E =        24.4832511384
  H        11.5104504914        8.1048834982       32.2277973471
  C        11.4373897923        7.0080159261       32.1099610893
  H        12.3989104118        6.4615654438       32.0018314411
  C        10.4173761448        6.7309672805       30.9701479703
  C        10.9347820844        6.5343441281       33.4529559432
  C        11.0162763907        6.3646742376       29.6251045152
  H         9.5841879766        6.0539534884       31.2716206910
  H         9.9321226496        7.6901743178       30.7105511175
  H        11.8437900667        6.6021143947       34.0622543252
  H        10.0990207590        7.1248341873       33.8271835864
  H        10.6667000093        5.5034171931       33.4932272973
  C         9.8766555944        6.3917380668       28.5348255396
  H        11.5936905848        5.4596925444       29.7660951380
  H        11.6705482793        7.1304533464       29.3200005750
  C        10.4860142878        5.9272413536       27.2506084780
  H         8.9219402316        5.9350912109       28.8287054919
  H         9.6083473794        7.4299623674       28.4346889590
  C         9.5219630850        5.4502630851       26.2391232110
  H        11.3367179576        5.2706856793       27.4901191803
  H        10.9484598621        6.8104452926       26.8338887573
  C         8.3607039845        6.2449490053       25.8124343410
  H        10.0198822231        5.0547567489       25.3451166510
  H         9.1615132462        4.5862372579       26.7743091275
  C         7.2651240226        5.3446897561       25.1051964677
  H         7.9431374967        6.7655665047       26.6388218527
  H         8.7498971149        7.0306118996       25.1424530637
  C         6.9141019892        3.9518953648       25.8204246978
  C         7.7229008289        4.6202862894       23.9248329762
  C         5.9606632750        6.2423934731       25.0770722777
  C         7.2218372116        2.8795074187       25.0318756609
  C         6.3594554700        3.5803789310       27.0235988795
  C         7.7856181915        3.2771370046       23.8109265571
  C         8.1728714875        5.3384738195       22.8107989244
  H         6.0527192451        7.0824669478       24.2855791711
  H         5.8906259982        6.8384110831       25.9750227318
  C         4.6907114837        5.4548063974       24.7050709086
  S         6.9726529518        1.3770451197       25.7996886567
  C         6.2956503635        2.2284631293       27.1468714076
  H         6.0606626529        4.3528758850       27.7549701687
  C         8.2852331684        2.7265919363       22.6808813952
  H         8.1644020163        6.4402543213       22.9405627524
  C         8.6479835302        4.7530712135       21.6513741435
  H         4.9576317659        5.0887349364       23.7054908275
  H         4.4270731882        4.5633889262       25.3136497637
  C         3.4613939724        6.3844730164       24.6429804108
  C         5.9746358514        1.5431279468       28.4068828359
  C         8.6794631371        3.4166287147       21.5844971231
  H         8.3450891650        1.7157967658       22.4484674860
  C         9.1406787023        5.1033231960       20.4428194638
  H         2.7461993767        6.2604376401       23.8274359488
  H         3.7294158895        7.4071774193       24.5536449276
  C         2.6732264047        6.5060022061       25.9714641367
  C         6.0766726277        0.1517758454       28.6536830550
  C         5.5731867992        2.3837660704       29.5471672270
  C         9.0804460630        2.6695194014       20.3004486604
  C         9.3852946667        4.0203024158       19.5867692267
  S         9.4677127441        6.6306638622       19.6653554827
  H         1.8356976397        7.1913509449       25.8525222029
  H         3.3413388112        6.9965014577       26.7253720951
  C         2.1197300339        5.2087698022       26.6401167147
  N         6.4603819781       -0.7817925781       27.7012739321
  C         5.8036588578       -0.4429157441       29.8811104050
  C         5.2885782593        1.7597962792       30.7275255240
  H         5.4901732998        3.4592533605       29.5079735451
  C         7.8758278720        1.7882308885       19.7107676627
  C        10.2779261585        1.6796036422       20.4304675092
  C         9.9224231114        4.4175367656       18.3405947929
  C        10.0263873647        5.7469241900       18.2178637997
  H         1.5650520179        4.7574800795       25.7940164720
  H         2.8188195828        4.4584208191       26.9621700147
  C         1.0951780630        5.2938541836       27.7914831229
  S         6.5111164269       -2.2585869852       28.3846377978
  N         6.0391094911       -1.8252343371       29.8505240194
  C         5.2964506099        0.2663293424       30.9594715283
  H         5.0506150496        2.3462943057       31.5885450242
  H         7.6747877168        1.0413309839       20.4546969303
  H         8.2969895884        1.2631740526       18.8105888312
  C         6.6311188985        2.5076258431       19.3541098300
  H        10.4613208915        1.1543884375       19.4910125128
  H        10.0647778271        0.9283705842       21.2341733859
  C        11.5207337013        2.4061532972       20.8233427400
  H        10.2301772802        3.6231356608       17.6772037071
  C        10.3578390301        6.4262848784       16.9403239557
  H         0.6028299080        4.2875713212       27.9028385920
  H         0.3539601705        5.9749653707       27.5536231623
  C         1.6042777503        5.8469187072       29.1431042582
  C         5.0504589459       -0.3680923057       32.2242001568
  H         6.8921048624        3.1692940904       18.5013904004
  H         6.4432528489        3.2060318394       20.1139224917
  C         5.5995242595        1.4124811608       19.0339251737
  H        11.3459056221        2.9512519112       21.7866336619
  H        11.8080396701        3.1318133061       20.0781480407
  C        12.6987713701        1.5139094479       21.0579076162
  C        10.4426456667        7.8907779520       16.8352509582
  C        10.6087102241        5.6716347771       15.7062608253
  H         1.6154820339        6.9387917199       29.2028770608
  H         0.8415906134        5.5074356638       29.9064700520
  C         2.9799729044        5.3265051045       29.5921346662
  H         5.1740263520       -1.4435535510       32.2194066803
  C         4.7816923968        0.0386580146       33.5098933003
  H         5.0536092438        1.1725784334       19.9902332507
  H         6.0619278213        0.4065587313       18.8544884507
  C         4.6685760145        1.7726555128       17.8851384812
  H        12.5153053621        0.9344970686       21.9488086711
  H        12.7541877130        0.7188262123       20.2926151329
  C        14.0658024778        2.2247506680       21.0022078087
  N        10.0638259197        8.8119087501       17.8221723581
  C        10.8698649717        8.4431073371       15.6373592688
  C        10.8673148691        6.2936590532       14.5155120183
  H        10.3720660417        4.6043395246       15.6346402563
  H         3.2305274256        5.8090382101       30.5429954045
  H         3.0043803799        4.2552594624       29.6888200023
  H         3.7851005584        5.5273612989       28.8543274843
  S         4.6755692242        1.6855568497       33.9859035212
  C         4.5971398679       -1.0163119994       34.5632775405
  H         4.4853667538        2.8622199945       17.8349432393
  H         4.9887127061        1.4618106211       16.9445953385
  C         3.2836128481        1.1519939367       18.0519491680
  H        14.0358223126        3.0654133049       20.3659540148
  H        14.8653329227        1.5852746806       20.7240954588
  C        14.3341088839        2.8171796790       22.3570974962
  S        10.2933804748       10.2603496551       17.1595375944
  N        10.9313432007        9.8594131484       15.7449088007
  C        11.1723324464        7.7482306009       14.4456024261
  H        10.9976324369        5.7109048688       13.6475736534
  C         4.3423876766        0.9590402107       35.6154193065
  N         4.3259923598       -0.3569337849       35.7358621506
  O         4.7299781591       -2.2191235599       34.4052596868
  H         2.6762820339        1.8152145753       17.4301659835
  H         3.0820788940        1.2538327534       19.0854920649
  C         3.0951594028       -0.2562484763       17.4210184774
  H        14.9089222326        3.7181462932       22.4058353950
  H        13.4151123377        3.0432533886       22.7575481052
  C        15.0541140231        1.7537668825       23.2608229596
  C        11.4216278023        8.5220413271       13.2498715949
  S         4.1016724936        1.8600525900       37.1545186823
  C         4.2234210927       -1.1818166691       36.9739919353
  H         2.8898918330       -0.0361743984       16.3898489172
  H         4.0645641859       -0.8518367916       17.3820116110
  C         1.9961926608       -1.1566158007       17.9707128944
  H        15.2283484343        0.7919804473       22.7981204292
  H        14.3899950518        1.6747318381       24.0513252530
  C        16.4288988837        2.2327561318       23.9133557111
  H        10.8638667249        9.4532952384       13.1770223616
  C        12.0995145823        8.2174826674       12.0687810635
  H         3.4986457134       -0.8229236072       37.6597111566
  H         3.9760271957       -2.2030748929       36.7297135895
  C         5.6209802847       -1.3609600038       37.6797455373
  H         1.1295554627       -0.5235452303       17.7540241456
  H         2.0331337059       -1.1820692558       19.0828890550
  C         1.8742259719       -2.4998255377       17.3199735379
  H        16.3925051003        3.1661738589       24.4297021714
  H        16.5154453091        1.3997906133       24.5523019385
  C        17.5589321156        2.1813116987       22.8956340460
  S        12.7911085562        6.6554205971       11.7797110339
  C        12.0829196257        9.1901931871       11.0222399708
  H         5.4855286015       -2.1199626775       38.4143355938
  H         6.4308972256       -1.5474197289       36.9800687026
  H         5.7787863556       -0.4162402295       38.1559319052
  H         1.7906666068       -3.3835686130       17.9795925741
  H         2.8001675605       -2.6203021716       16.7527167623
  H         1.0917857719       -2.5164661866       16.5825941448
  H        18.4055860784        2.6365594324       23.3562203288
  H        17.3714176399        2.8003994575       22.0303718306
  H        17.7625843646        1.1843490383       22.5295320927
  C        13.0354041533        7.2848859396       10.0931907640
  N        12.8251147386        8.6344133832       10.0029124773
  O        11.7247364161       10.3445263437       11.0857163998
  S        13.9006274808        6.4721288441        8.7970282313
  C        12.8788915499        9.3478475748        8.7328518306
  H        13.1810365812       10.3429356312        8.8932861480
  H        13.6178825356        8.9526982858        8.0461567031
  C        11.4909168778        9.0954200204        8.1421039779
  H        11.0630688923        8.1379389728        8.4635476718
  H        10.7738840269        9.8720858357        8.4586239587
  H        11.6872617154        8.9675941201        7.0697024477
  H        21.3052432385       11.7259925413        3.5405409433
  C        21.8084105723       10.8199572722        3.4695424228
  H        21.1021934132       10.0591188551        3.6053502331
  C        22.8306834387       10.7400787478        4.6019483276
  C        22.4170521096       10.8527427536        2.0639259837
  C        22.1637478742       10.9669772753        6.0186007993
  H        23.3164946481        9.7781223111        4.4665641471
  H        23.5072787888       11.5929774664        4.3859066336
  H        21.5741088854       11.1972788877        1.4895230520
  H        22.7663816597        9.8810950972        1.7631068186
  H        23.2483814938       11.5933476125        2.0278159157
  C        21.2077286420        9.8659031989        6.4440220540
  H        22.9329419255       11.0537295885        6.8125772834
  H        21.5414130593       11.8499410324        5.8951697933
  C        20.4938333663        9.9787090265        7.7624403974
  H        21.8170399295        8.9454551388        6.4418703718
  H        20.6123720637        9.7831845844        5.5399938765
  C        19.3063076899       10.8693347814        7.5659404645
  H        21.2212721849       10.4710051492        8.4566338885
  H        20.2376203203        8.9433491948        8.0790764417
  C        18.1016860539       10.1324333523        7.0002692641
  H        19.0591683483       11.1723035583        8.5716305369
  H        19.6094654903       11.6723632368        6.9630875057
  C        16.8318431804       10.9878217559        7.0203121313
  H        17.9860555579        9.3289078482        7.6465319593
  H        18.2751714688        9.7512894825        6.0199408527
  C        17.1530392473       12.3831222429        6.3065710105
  C        16.5059403509       11.7566332051        8.2438616116
  C        15.6684929756       10.3594492554        6.3230178040
  C        16.9479225804       13.4572799187        7.1599958672
  C        17.7091275982       12.7651710395        5.0756176735
  C        16.5072888584       13.0757631648        8.3715146995
  C        16.1975066023       11.0442524623        9.4320504136
  H        16.0017727011        9.8133031447        5.4429395406
  H        15.4270006262        9.5281514319        6.9339656108
  C        14.4610532702       11.2687804159        5.8986591613
  S        17.3445508399       14.9732942814        6.3619327257
  C        17.7352681115       14.1099247383        4.9450942762
  H        18.0090253892       12.0558000514        4.3557155362
  C        16.0398715905       13.6591331437        9.5236384326
  H        16.2549700120        9.9943764591        9.3675106253
  C        15.7574201582       11.6146343595       10.5671246562
  H        14.7210866419       12.2050571326        5.4234739580
  H        13.9450229669       11.6467434234        6.7741499281
  C        13.5669126862       10.4595561371        4.9142175613
  C        18.1162539494       14.7122267373        3.5887878085
  C        15.6405855288       12.9677618500       10.6616187067
  H        16.0234873999       14.7361271896        9.6661367319
  C        15.3304208053       11.2168707178       11.8057607532
  H        12.5581868463       10.7788831095        5.0611830102
  H        13.4910221976        9.4538366288        5.3719155092
  C        14.0321948789       10.5432571550        3.5080087732
  C        18.1716336269       16.0715843560        3.3187671206
  C        18.5043465523       13.8215371187        2.4489516271
  C        15.1183646559       13.6486315943       11.9095679466
  C        14.9465845010       12.2532901218       12.5963882820
  S        15.1757862386        9.6679741118       12.5410211023
  H        14.9802038895       10.0148761111        3.4661079609
  H        14.3651540757       11.5742019129        3.1087070497
  C        13.0671833985       10.0911465466        2.5604648584
  N        17.6628382848       17.0290924831        4.2015926635
  C        18.4317538859       16.5846461404        2.0576428130
  C        18.7134138773       14.3110960717        1.1568230173
  H        18.3333316550       12.7755970281        2.4401352171
  C        13.7364376614       14.3125582943       11.7427685909
  C        16.0703964704       14.4707576431       12.7515752879
  C        14.5518519361       11.7971612002       13.9096969251
  C        14.6218900418       10.4355907784       14.0139752583
  H        12.4635729723        9.2456383533        2.8713966016
  H        12.3578561928       10.8697843272        2.3663549154
  C        13.7914551497        9.7628436739        1.2834225279
  S        17.6663940006       18.4243198911        3.4886040233
  N        18.1323776299       17.9311690701        2.0104351838
  C        18.9009376904       15.7823868697        0.9620915023
  H        19.0874344424       13.6295496545        0.4321220549
  H        13.8750457488       15.0981014033       11.0474578730
  H        13.3311769667       14.7336972982       12.6067385699
  C        12.5727148321       13.5343098032       11.2461620120
  H        16.0732529056       15.4948133298       12.3924713951
  H        15.7365751064       14.4397626898       13.7908569095
  C        17.4366528702       13.7856323789       12.8065437054
  H        14.3017726959       12.4715210433       14.7103021380
  C        14.2734374954        9.6810897483       15.2631147098
  H        14.4042303383        8.8392363508        1.4585190497
  H        14.4240868112       10.5724841033        1.0552517775
  C        12.8546910991        9.4103849127        0.1303818874
  C        19.1066725580       16.4053010664       -0.3136955691
  H        12.7311901294       13.0504896177       10.2594297844
  H        12.3445342191       12.6846148075       11.9381152678
  C        11.3251281973       14.3843468352       11.0731783819
  H        17.8783962675       13.8191594488       11.8194605093
  H        17.4570734480       12.7842617363       13.1448985777
  C        18.3376230375       14.5492365216       13.7993487391
  C        14.3308654694        8.2673737768       15.4520953527
  C        13.8519671960       10.4386420408       16.4711811259
  H        12.7860685747        8.2832024134       -0.0159220324
  H        11.8573770987        9.7336692546        0.4363466469
  C        13.2977504058       10.2377576091       -1.1049939855
  H        18.6727271318       17.3309623558       -0.4562591988
  C        19.3486992866       15.9879265451       -1.5894380515
  H        11.5997433727       15.1574472053       10.4011594682
  H        10.9763106395       14.8161521554       11.9749084574
  C        10.2549863090       13.4623391282       10.4427110400
  H        18.3013839758       15.6583148681       13.5691770864
  H        17.7905348750       14.5471602480       14.7847204061
  C        19.6833804652       13.8737516626       13.8693687080
  N        14.6689918742        7.3380390018       14.4446566460
  C        13.9363971555        7.6387924314       16.5968321522
  C        13.5670171829        9.7632897122       17.6417427421
  H        14.1554166084       11.5063503981       16.5512757582
  H        13.2118484129       11.2377499122       -0.7874185564
  H        12.5748722620       10.0703626523       -1.8757604349
  H        14.2574423405       10.1218225035       -1.5209705765
  S        19.7589916751       14.3785244898       -2.0295393525
  C        19.3936742067       17.0637560144       -2.6559751939
  H        10.5461638312       12.4905420696       10.0877789801
  H         9.4292141796       13.3402591503       11.1233579538
  C         9.6395302672       14.2623557353        9.3411515914
  H        19.7738548501       13.3731742999       12.8682296592
  H        19.7940453085       13.1709446813       14.6853441058
  C        20.7983679639       14.8957647633       13.8967798457
  S        14.4521836507        5.8568496194       14.8882737918
  N        14.0222530915        6.2157497094       16.4398007676
  C        13.5457039775        8.3182663135       17.7502491802
  H        13.2992264790       10.3457949168       18.4576054031
  C        20.2670600932       15.0341436761       -3.6026285788
  N        20.0645117007       16.4506067057       -3.6974027182
  O        19.2658577901       18.2536088737       -2.4844620734
  H         9.1980178128       15.1545737834        9.7749827634
  H        10.4478874582       14.5593346655        8.6302333544
  C         8.5594845528       13.4268831371        8.6016466556
  H        21.6729805355       14.5722694803       13.3731259936
  H        20.5222585277       15.7294182410       13.2363749273
  C        21.2337649487       15.3659929113       15.3083570972
  C        13.2466167900        7.5267682833       18.9281210072
  S        20.7274692386       14.0612640544       -5.0177935079
  C        20.1516322161       17.1867050221       -4.9670396231
  H         8.6504137512       13.3851231083        7.5091201752
  H         8.7086994827       12.3839169159        8.9159938916
  C         7.0435662064       13.7557539468        8.7744635066
  H        21.5612405484       14.5093468466       15.8546320727
  H        20.3658261202       15.7748560547       15.8191765256
  C        22.2444582222       16.4567839260       15.1845258344
  H        13.4860364352        6.5016055975       18.8642879289
  C        12.7082125249        7.8545933971       20.1434541360
  H        20.8193139026       16.6377353422       -5.7010843628
  H        20.5978956387       18.2089128353       -4.8291468189
  C        18.7867496280       17.1750137563       -5.6710775206
  H         6.4388905666       13.3689588090        7.9317608772
  H         6.8292149610       14.8130187415        8.7592146164
  C         6.3731517078       13.4771295911       10.1532252175
  H        22.7050766241       16.7086794554       16.1699903400
  H        22.9796791407       15.9654507230       14.5205489949
  C        21.7349960626       17.7293471762       14.6928774344
  S        12.1507570612        9.4642649162       20.7188958422
  C        12.4973458293        6.7445910698       21.0426119523
  H        18.7299451302       17.5473765940       -6.6945005874
  H        18.0801681358       17.8609389627       -5.2100895218
  H        18.3333842325       16.1992829412       -5.7046110417
  H         5.3130615962       13.4033915281        9.9864346775
  H         6.9290947471       12.6727888361       10.6755287538
  H         6.4407901541       14.4328241179       10.5925467498
  H        21.9808336463       18.5555309697       15.3774720350
  H        22.1424956394       17.9862077259       13.7178039950
  H        20.6358314613       17.6926193489       14.5957001805
  C        11.6809893451        8.5504356816       22.1633935347
  N        11.9991465826        7.2527632242       22.2000380210
  O        12.9795840875        5.6046052553       20.9291848774
  S        11.0082529323        9.2819382850       23.5883161433
  C        11.9261503997        6.3631549838       23.3241840612
  H        11.6387168966        5.3976754787       22.9192961110
  H        11.0809687005        6.5851428376       23.9876429421
  C        13.2579546621        6.2936936782       24.1112456069
  H        13.9736485798        5.6143061240       23.6794920998
  H        13.0086832507        5.9098137528       25.0778138627
  H        13.7244999138        7.2657075020       24.2747870495
