352
 i =    12400, time =    12400.000, E =        25.7959650697
  H        12.9424441395        6.2067519419       32.2549086721
  C        12.4835974637        5.2342709938       32.3449926860
  H        13.2928103125        4.4966436820       32.1732110849
  C        11.4002570704        5.1061398856       31.2479552557
  C        11.9645627446        5.0165915717       33.7969960241
  C        11.9579906736        5.1593952785       29.8510265988
  H        10.9917670010        4.0664129868       31.4129550829
  H        10.5855196646        5.8386403506       31.3293582353
  H        12.7738363601        4.9984148178       34.5453378776
  H        11.3286439597        5.8450663206       33.9827838289
  H        11.4772490260        4.0616614805       33.7654292183
  C        10.7029202468        5.3310377564       28.9218886111
  H        12.4520884739        4.2864075520       29.5475729437
  H        12.6308715938        5.9962439566       29.6417109924
  C        11.0228560322        5.4256283523       27.3892088239
  H        10.1547760717        4.4089731551       29.0876371025
  H        10.0838403088        6.1309313638       29.2309693434
  C        10.0598152439        4.5381652257       26.4987894374
  H        12.0719135871        5.1611644435       27.3646715363
  H        10.9492177754        6.5168374450       27.1451763595
  C         8.9180874148        5.4805341725       26.0935370322
  H        10.5506705688        4.0789583248       25.5988413501
  H         9.6564708901        3.8145185874       27.1662735829
  C         7.6403744527        4.8677494938       25.4602197495
  H         8.6353832966        6.0986990191       26.9329808561
  H         9.3832162688        6.1651266508       25.3752428717
  C         7.2865117488        3.5546578929       26.2023513910
  C         7.9544845315        4.1014886642       24.2394341520
  C         6.5873890763        5.8771195888       25.2219812875
  C         7.4858308915        2.4057783530       25.3917657174
  C         6.9219883851        3.2303566207       27.5194807729
  C         7.8136131606        2.7655460390       24.0788002175
  C         8.3678500002        4.7871736250       23.1318087946
  H         6.7531512350        6.4376615676       24.3505753831
  H         6.5282121047        6.5912797869       26.1257337712
  C         5.1695584824        5.3040988059       25.1945278854
  S         6.9299587911        0.9786700482       26.2751458359
  C         6.7485381629        1.8724574864       27.6663624479
  H         6.7679153305        4.0043657252       28.2028911917
  C         8.2208865991        2.1432165287       22.9355540967
  H         8.4767932594        5.8993685350       23.2313970421
  C         8.7529036125        4.1912049289       21.9718477661
  H         4.9772069672        4.4125574298       24.5334762519
  H         4.8870166317        4.7917247120       26.1354559072
  C         4.0807098005        6.3267954978       24.8949964828
  C         6.1978318263        1.2174700068       28.9436762469
  C         8.6420598880        2.8655218851       21.8182551266
  H         8.2157186747        1.0429734826       22.8537745258
  C         9.2386133942        4.5817887861       20.7638497060
  H         3.3740071166        5.8900349766       24.1773088008
  H         4.4650389794        7.2148852184       24.5524665218
  C         3.1888196823        6.6521707232       26.0642520132
  C         6.2427189595       -0.2217811948       29.2689807955
  C         5.7209099692        2.0336046144       30.0637508443
  C         9.0533867396        2.1795191231       20.5726187334
  C         9.3115796390        3.5416493570       19.9004086632
  S         9.6167548971        6.0562472657       20.0357311369
  H         2.7613090087        7.6141077976       25.8203739865
  H         3.9396797322        6.8464944474       26.9305060393
  C         2.1837453698        5.5492462958       26.4182751292
  N         6.5204604581       -1.1860776769       28.3125726128
  C         5.8580502219       -0.7704935305       30.4339506304
  C         5.2911250780        1.4560601481       31.2680729462
  H         5.6456459176        3.0880429665       29.9764918850
  C         7.8441910006        1.4473932066       19.9997560527
  C        10.4170250800        1.2961328897       20.6527197989
  C         9.7741170149        3.8971076155       18.6791016176
  C         9.9260097641        5.2443254781       18.5495789012
  H         1.2654411276        5.8406175631       25.7650459596
  H         2.5829175549        4.5241555839       26.2853173899
  C         1.4934348254        5.6147641968       27.8263027517
  S         6.3062309031       -2.6353914225       28.9811014482
  N         5.7909256267       -2.1693899951       30.4591170204
  C         5.4391898426        0.0293137519       31.5206221881
  H         4.9239437670        2.1578762287       32.0017503698
  H         7.4455502021        0.7436002807       20.7240426675
  H         8.3085120013        0.9213647228       19.1883039728
  C         6.7768581181        2.2604332458       19.3440997447
  H        10.6270427620        0.9060141153       19.6824887933
  H        10.1554971456        0.4945898021       21.2976813373
  C        11.6649098718        1.9547693065       21.3104591081
  H         9.9461976062        3.1590796629       17.9353196972
  C        10.1864690954        6.0731151701       17.2944217909
  H         0.7327147611        4.8399493614       27.9689719584
  H         1.1557336705        6.5848762101       27.8935291361
  C         2.5728449903        5.4242383503       28.9773956698
  C         5.1506941114       -0.6619248722       32.7257913310
  H         7.1983982885        2.9397418387       18.5494658215
  H         6.3349952732        2.9950526070       20.0182599838
  C         5.6658693186        1.4056920742       18.8018302921
  H        11.6368928432        2.3254929361       22.2837690290
  H        11.8309349305        2.8617977011       20.7348131616
  C        12.9396184630        1.0640027082       21.2624101029
  C        10.1926331794        7.4768107955       17.1928324918
  C        10.5938016209        5.3185962093       16.0321050483
  H         3.2129901072        4.4780166359       29.0626363273
  H         3.2893030413        6.2162716569       28.9147762856
  C         1.9770927644        5.6678917342       30.3662952387
  H         5.1737293675       -1.7794283584       32.6996354517
  C         4.8080572119       -0.2650256201       33.9772668708
  H         5.0604369781        0.9296735075       19.5074425818
  H         6.0906453615        0.5530731353       18.1797349394
  C         4.7725329263        2.0494470359       17.7697522362
  H        12.9666443722        0.4240178980       22.1139380157
  H        12.8690232684        0.5792049002       20.3358266176
  C        14.2599658731        1.8800784065       21.1867801656
  N         9.9036916242        8.4045921337       18.2030217216
  C        10.5359748864        8.1261387089       16.0204137311
  C        10.8454888864        6.0336820651       14.8405470623
  H        10.5291270733        4.2917945020       16.0485906106
  H         1.7561199668        6.7276573422       30.5530961760
  H         1.1650480920        5.0448211682       30.5611098183
  H         2.5594531725        5.4729253488       31.2369374845
  S         4.5341617903        1.3686258943       34.4817857578
  C         4.6214967349       -1.2928490295       35.0679263093
  H         4.5152104353        3.0449737292       18.0224797803
  H         5.2779758890        2.2185485412       16.8877288172
  C         3.4087450645        1.3382023915       17.5533870248
  H        14.0799495578        2.7042953898       20.5350945871
  H        15.0919050957        1.3176774088       20.8067370199
  C        14.7430533610        2.4727222139       22.5362960378
  S        10.0477197948        9.9547923352       17.7227229563
  N        10.5612624181        9.4948509637       16.1543686903
  C        10.7733354616        7.5022240504       14.7602921390
  H        11.1126643315        5.4605346329       13.9889883514
  C         4.3915279726        0.7614649282       36.0845705981
  N         4.4035860867       -0.6064254200       36.2145909821
  O         4.8362609420       -2.5431665268       34.9255642711
  H         2.8304324013        2.0034004413       16.9235833372
  H         2.9167115896        1.3056849378       18.5351266131
  C         3.5606497157       -0.0507211636       16.9236243954
  H        15.3461737990        3.3116535960       22.3507110822
  H        13.9184277325        2.8139159659       23.1595589376
  C        15.6219244999        1.4686337900       23.3053940226
  C        11.1088077506        8.2706267099       13.6168222274
  S         4.1002262699        1.6779943040       37.4945727107
  C         4.2608395468       -1.3107938190       37.5279532961
  H         3.0973633548       -0.0084664128       15.9887039168
  H         4.5785145500       -0.2951142732       16.7184919905
  C         2.9487885252       -1.2253043530       17.6391086544
  H        15.6933345037        0.4919472549       22.7204658532
  H        15.0905259495        1.3847723620       24.2466469124
  C        17.0449745496        1.8909187941       23.5892806772
  H        10.9333265645        9.3739400536       13.8489232865
  C        11.7172998119        8.0195913478       12.3809171683
  H         3.2921212472       -0.8733874566       37.8562474384
  H         4.0765659610       -2.4011099374       37.3955180201
  C         5.4638185410       -1.0039313505       38.4609629882
  H         3.4352848887       -1.3371141016       18.6608562914
  H         3.2766700704       -2.1443562518       17.1623613023
  C         1.4174218051       -0.9612313473       17.7111941779
  H        17.0026300491        2.8179468243       24.1164095690
  H        17.5795078013        1.1413650141       24.2178669323
  C        17.9182150618        2.0476594310       22.3137662221
  S        12.0955871463        6.4526151654       11.7097220815
  C        11.8879512427        9.2006454895       11.4603783729
  H         5.9199181960       -1.9524006796       38.4779563811
  H         6.2045431736       -0.3147768019       38.0905162208
  H         5.1631167634       -0.6070652331       39.4808386182
  H         0.9107445795       -1.8756018105       18.1743233836
  H         0.9306495223       -0.8072758437       16.7066171270
  H         1.0546652144       -0.0339251770       18.2781715315
  H        17.9848587498        3.1311762814       22.1600137473
  H        17.3815931499        1.6530733586       21.4577191524
  H        18.8843987881        1.5562840042       22.2527681740
  C        12.4901390756        7.4435833892       10.2424194656
  N        12.3230586890        8.7836893475       10.3187234655
  O        11.6524221418       10.3620732791       11.8570692547
  S        12.8488719912        6.7846172260        8.6240439032
  C        12.2940578527        9.5688740207        9.0985082732
  H        12.4865137997       10.5906427376        9.3860467926
  H        13.0565671167        9.2925361160        8.3670209471
  C        10.8975330854        9.4835934985        8.4989490117
  H        10.6902050920        8.5021079651        8.0485302914
  H        10.1038051512        9.6031804788        9.2874958681
  H        10.7605248390       10.2327842749        7.7580532634
  H        20.7339507850       10.9039054270        4.1794165301
  C        21.3711161266       10.0847970659        3.9669551643
  H        20.6697940111        9.2776440853        3.9397072680
  C        22.2759733446       10.0246245024        5.1415357473
  C        22.0958016684       10.1770319920        2.6463795499
  C        21.6616112793       10.4115648270        6.4545752719
  H        22.6757654166        9.0227511539        5.2309050439
  H        23.0467854858       10.7066634527        5.0268535779
  H        22.9080036176       10.8978172848        2.7018115652
  H        21.4020063661       10.4771118913        1.8720714375
  H        22.5436281101        9.2667969406        2.2291079935
  C        20.8275885059        9.3057495563        7.1224109576
  H        22.5597656783       10.5792851540        7.0160862051
  H        21.1541416737       11.3742266038        6.4319378988
  C        20.1974504843        9.6235030475        8.4989717334
  H        21.4599071226        8.4800124512        7.4429261119
  H        20.2294666911        8.7186001062        6.3784683440
  C        19.0329141053       10.6356923929        8.3113736362
  H        20.9901144740        9.9485465755        9.1827684733
  H        19.9095784488        8.6669302088        9.0051457004
  C        17.9237633850       10.0139779807        7.4397056661
  H        18.5185328940       11.0879337098        9.2403166542
  H        19.5000245588       11.5014733208        7.7406444597
  C        16.6283018712       10.8857474894        7.2523852716
  H        17.6859641816        9.0135813254        7.8348970293
  H        18.1970557182        9.8032740315        6.3680560233
  C        17.0411285911       12.2911794450        6.6105866747
  C        16.0709650887       11.5893035939        8.4323462099
  C        15.5541654132       10.2159626629        6.3969790389
  C        16.7303457900       13.3696586638        7.4665371856
  C        17.5927203375       12.7223760301        5.3882227343
  C        16.1668763523       12.9363597771        8.6482940791
  C        15.5685194389       10.8759955243        9.5439442766
  H        15.9435589522        9.7425208746        5.4994440720
  H        15.1985866069        9.4126857666        6.9787284978
  C        14.3316782600       11.0667717311        6.1535336668
  S        17.0767742413       14.8517377332        6.7733487071
  C        17.5730460962       14.1398213760        5.2824325816
  H        17.8936370735       11.9453492605        4.6730002689
  C        15.7289854284       13.4262637007        9.8391412391
  H        15.5760617545        9.8804537300        9.3723420286
  C        15.1839596212       11.4217996862       10.7368971240
  H        14.5992090839       12.1039121818        5.9611517542
  H        13.7595056052       11.2641716811        7.1014997170
  C        13.2698074741       10.4814197458        5.2219328746
  C        17.8664743771       14.9231386635        4.0494059073
  C        15.2712103821       12.7246158136       10.9652280840
  H        15.7602215114       14.5480141853        9.9383168229
  C        14.8990466701       10.9089008343       12.0245919033
  H        12.4703151527       11.2644325456        5.1013549939
  H        12.8009455421        9.6330253375        5.7742839059
  C        13.7828089851       10.1118474799        3.9121487049
  C        17.7865724267       16.3310711980        3.7704611541
  C        18.3850244531       14.0939349718        2.8827426953
  C        14.8964368353       13.3523497226       12.2737618127
  C        14.7147328283       11.9367930840       12.9299648562
  S        14.8418312810        9.3953500664       12.7575257655
  H        14.1210379465        9.0695259128        3.9103952449
  H        14.5696102697       10.8224113727        3.7438464629
  C        12.7979461435       10.1512674117        2.8256852072
  N        17.5697616940       17.3272363694        4.7001001366
  C        18.2323490793       16.8329827749        2.5484243445
  C        18.6437169237       14.6246587022        1.6347089994
  H        18.4640367019       13.0126852027        3.0322389197
  C        13.6055179449       14.2078567001       12.0579101359
  C        15.9755632372       14.2462759098       12.9550289587
  C        14.3847873803       11.4180502257       14.1825073478
  C        14.3861587503       10.0333077805       14.2734806950
  H        12.4577656857        9.0852238691        2.7864674836
  H        11.9186648597       10.7693108123        3.0043057229
  C        13.4254059414       10.5741306795        1.4658077709
  S        17.6627412099       18.7638078633        3.9971007276
  N        18.1400683170       18.2026256518        2.5421133112
  C        18.5527434872       16.1008049465        1.4126966179
  H        18.8808295026       13.9735168668        0.8101220976
  H        13.8065737250       14.9830400588       11.3058414524
  H        13.3796598689       14.8248777186       12.9565497312
  C        12.4595743253       13.3969297132       11.5195148197
  H        16.3950718206       15.0796276600       12.3692038423
  H        15.4231550975       14.7004574862       13.7715750853
  C        17.1385745860       13.2983235099       13.5786940791
  H        14.2656517042       12.0800633662       14.9621095696
  C        14.1269195612        9.2058024599       15.5103706581
  H        14.4508100651       10.2203934251        1.5078418744
  H        13.5492563873       11.6298786115        1.2997689891
  C        12.6421686094       10.0375158932        0.2797807351
  C        18.7624749762       16.7574768206        0.1545122453
  H        12.7462104430       12.7849329466       10.6438167122
  H        12.1676943789       12.6345495735       12.2424026169
  C        11.2807422582       14.3486352701       11.2071585257
  H        17.4507406194       12.4482226302       12.9579810775
  H        16.7791243015       12.8059211217       14.4591642861
  C        18.3142207425       14.0803356589       14.1442388310
  C        14.1783994081        7.7743115659       15.5928608565
  C        13.9240982813        9.9073580464       16.8436089566
  H        12.5747490632        8.9977908592        0.2557677921
  H        11.5757541222       10.2979538222        0.3069430598
  C        13.2158184769       10.4385312841       -1.0871677293
  H        18.7051678137       17.8310990638        0.2692632634
  C        19.0665665231       16.3326915107       -1.1312880185
  H        11.5127137450       14.8655354551       10.2700682895
  H        11.1452172302       15.1568444089       11.9272110848
  C         9.8889562142       13.7786784089       11.1710021451
  H        18.7711402577       14.7004190357       13.3680769865
  H        18.0470194556       14.6989017436       14.9858041478
  C        19.4303547803       13.1554991615       14.5508806199
  N        14.2869190267        6.8891768046       14.5023126631
  C        14.0078458552        7.0987560030       16.8379183885
  C        13.6567134414        9.1849047890       18.0354740831
  H        13.9152057341       10.9725108278       16.8161721747
  H        12.5466351701        9.9080489813       -1.7933227338
  H        14.1579805284        9.9851220602       -1.1719981331
  H        13.2073466655       11.4761524133       -1.3971070142
  S        19.3112130716       14.6789792986       -1.6060642521
  C        19.1640502253       17.3596964847       -2.1571127701
  H         9.8926132643       12.8919702483       11.7603497178
  H         9.2361021458       14.5788788804       11.5308329822
  C         9.4667457612       13.4114684845        9.7606175046
  H        19.4767903308       12.2450114828       13.9681231096
  H        19.0762640198       12.8658906811       15.5953122599
  C        20.7975242488       13.8521607756       14.7546969457
  S        14.4646307392        5.3631214005       15.1247685135
  N        14.1326370668        5.6823770366       16.7229847415
  C        13.6636363603        7.7145194678       18.0351717191
  H        13.5370854863        9.6696223964       18.9691377925
  C        19.5323335032       15.3845484492       -3.1818029435
  N        19.4078284496       16.7547622544       -3.3478425161
  O        18.9555977056       18.5630954236       -1.9753753975
  H         9.4448693435       14.2566204617        9.1083937441
  H        10.0867982246       12.7175928067        9.2560871344
  C         8.1090297419       12.8231363566        9.6792287053
  H        21.4267987574       13.3845356002       15.5488859067
  H        21.4096667134       13.6826245882       13.8429861638
  C        20.7757957701       15.4270025354       14.9946056013
  C        13.3820146275        6.9211427719       19.1993867149
  S        19.9113103408       14.5442285187       -4.6581615391
  C        19.0870648396       17.4541689939       -4.5849029584
  H         7.8956999454       12.8374328251        8.5844879312
  H         8.1049531572       11.8145061274        9.9403587239
  C         7.0107891564       13.5478359311       10.4832232920
  H        20.0559735641       15.8650689523       15.7836562717
  H        20.4442021588       15.9187019808       14.1489894559
  C        22.0828733273       16.0399729700       15.4183802034
  H        13.5061004155        5.8619243108       19.0826692719
  C        12.7744462438        7.1741411220       20.3949360787
  H        19.5659207542       16.9784582129       -5.4512771879
  H        19.3321285710       18.5508671523       -4.5616729508
  C        17.5789682848       17.3234824959       -4.8099108977
  H         7.3835145750       14.6149333836       10.5058582124
  H         6.9828465879       13.0951942551       11.4468467933
  C         5.5837660546       13.5631296866        9.8664785706
  H        22.3179754369       15.6247095796       16.4071192764
  H        22.8854464812       15.5294108677       14.7586625421
  C        22.0497681163       17.5089670021       15.2316642647
  S        12.3792269383        8.7372752669       21.0175753972
  C        12.6308419392        6.0655856319       21.3691105842
  H        17.2716314522       18.1748718603       -5.3854918197
  H        16.9653899780       17.2761011810       -3.9647231088
  H        17.3865178139       16.4272900129       -5.3001940230
  H         5.6107090946       13.3288350137        8.8197545159
  H         4.9143255402       12.8369077346       10.2957301197
  H         5.0901239714       14.5354261356        9.9810541358
  H        21.2627781557       17.9951199026       15.8002352491
  H        22.9674630340       17.9382043013       15.5295853149
  H        22.0744051079       17.6603280402       14.1588016191
  C        12.0410431082        7.9494439952       22.5120865834
  N        12.1031583867        6.5957546499       22.4758045344
  O        12.8622408585        4.8791125733       21.1134170358
  S        11.2643029680        8.6729845595       23.9956942386
  C        12.0173654115        5.7408721800       23.6472574422
  H        11.7061756189        4.7405485824       23.3937324495
  H        11.2758562290        6.0659288136       24.3292330477
  C        13.4439305836        5.7701033231       24.3088685225
  H        13.4126294716        5.4606542063       25.3893655003
  H        13.9022309855        6.7183965151       24.3198453495
  H        14.1374831278        5.0118741157       23.8870366909
