352
 i =    44600, time =    44600.000, E =        25.1005925802
  H        11.4308493571        7.5222850503       31.9722690782
  C        11.1986761817        6.4729287691       31.9927698746
  H        12.1072042521        5.9783429723       31.7064619755
  C        10.2591702456        6.1040862571       30.8832724520
  C        10.7792699566        5.9625669304       33.3500060853
  C        11.0082349904        5.9229377896       29.5311684206
  H         9.7578924335        5.2195577722       31.3271879147
  H         9.4824998067        6.7941619669       30.7851008469
  H        11.4975646561        6.2114084580       34.1294230046
  H         9.8586263480        6.4997368210       33.5318348882
  H        10.4517878925        4.8721017370       33.3845887608
  C         9.9973189749        5.6977023298       28.4092947256
  H        11.6301475754        5.0050654147       29.4387324398
  H        11.6660046292        6.7433336976       29.2423432683
  C        10.6580724875        5.2814649784       27.1536459365
  H         9.1452715814        5.1003273238       28.6896359353
  H         9.5672003653        6.6494768584       28.2905428508
  C         9.7120459833        4.7490880316       26.0994113042
  H        11.3165499832        4.4308119509       27.3624498217
  H        11.1552959910        6.0523770703       26.7540257848
  C         8.5357349805        5.6610305811       25.6037738749
  H        10.3190057580        4.4458115044       25.2480968104
  H         9.4656436615        3.7894760566       26.5437283473
  C         7.3867228286        4.8789389067       24.9920025592
  H         8.1559658438        6.3559257397       26.3831915935
  H         8.9831551486        6.3042065054       24.8278038772
  C         7.0592061411        3.6117616081       25.6921829590
  C         7.7706496565        4.1116651841       23.8064615194
  C         6.0936054254        5.6992721423       24.7463507177
  C         7.1357036435        2.4672745416       24.9622851722
  C         6.6690452299        3.3740000861       27.0225906838
  C         7.5157007115        2.8223625334       23.6923865665
  C         8.1850018099        4.7872797299       22.6150680860
  H         6.2357815215        6.3707871953       23.9032112819
  H         5.9097697399        6.3514054763       25.5731149545
  C         4.7972637689        4.8663238885       24.5202072665
  S         6.8442438489        1.0518981815       25.9076709498
  C         6.4665894310        2.0532226422       27.2724850690
  H         6.4024681829        4.2201163678       27.6758095177
  C         7.8202836411        2.1551289618       22.5566536563
  H         8.3118148426        5.8330273608       22.7160677075
  C         8.4701126140        4.1305419446       21.4925018089
  H         4.8981818272        4.0569649508       23.8105292469
  H         4.5268691137        4.3019528660       25.4807649973
  C         3.6447353777        5.7527395988       24.0251294712
  C         5.9847278937        1.4436206490       28.5952485728
  C         8.3398703538        2.8162750799       21.3821186339
  H         7.8417358324        1.1419720034       22.3868737176
  C         8.9052712265        4.5079862418       20.2399123869
  H         3.0817214033        5.1876526421       23.2839216531
  H         3.9779891581        6.6921316770       23.5568048325
  C         2.7409678000        6.1823712876       25.1247799704
  C         5.6993236857        0.0717131283       28.7798660525
  C         5.6795270528        2.2794942255       29.7862832492
  C         8.7360117442        2.0900548082       20.1657262563
  C         9.1371830283        3.4546288884       19.4143278411
  S         9.3329635438        6.0775356795       19.5677031361
  H         2.0581195279        6.8744953643       24.6969935618
  H         3.3059629935        6.9000872413       25.7847676199
  C         2.0575973988        5.1247634947       25.9109428879
  N         5.9034615823       -0.9240584822       27.7926026016
  C         5.3407964107       -0.4662624919       30.0002315229
  C         5.2234928089        1.7836056631       30.9897663052
  H         5.6597531588        3.3997768553       29.7296860675
  C         7.6081496484        1.3581657038       19.3686212229
  C         9.9923714431        1.2768305422       20.4396195346
  C         9.5575828062        3.8851378941       18.1517967424
  C         9.6308561114        5.2542379866       18.0547097583
  H         1.2199168995        4.9028040838       25.4011783472
  H         2.6558176787        4.1935440331       26.1008898068
  C         1.6378059541        5.8355044459       27.1942940133
  S         5.7351892110       -2.3860371965       28.4977277063
  N         5.3164273952       -1.8800790105       29.9768395177
  C         5.0736419273        0.3084178148       31.1492458283
  H         5.2004864977        2.4679979745       31.8644096941
  H         7.1977976915        0.5814115703       20.0283372729
  H         8.1245822387        0.9630079943       18.5074184103
  C         6.4698269049        2.3082096241       18.8765653723
  H        10.2073413371        0.7001026625       19.5462572113
  H         9.8335238195        0.5004947040       21.1408891947
  C        11.2768512273        2.0649150839       20.8406925632
  H         9.7460534608        3.2137317653       17.3552870817
  C         9.9923530855        6.1120401089       16.8365960624
  H         0.7661594364        5.3540030385       27.5439158803
  H         1.4845628060        6.9124178856       27.0662764286
  C         2.5573633366        5.6274137102       28.3929827935
  C         4.8725534641       -0.3702215973       32.4013652820
  H         6.9005749192        2.8380081497       17.9502840072
  H         6.3471931470        3.1118306814       19.6079124200
  C         5.1807666521        1.4828819972       18.4926254680
  H        11.2323011932        2.6070898231       21.7387199066
  H        11.5743515427        2.7345305937       20.0815005039
  C        12.5263401324        1.1742548139       21.1050868609
  C         9.8744596711        7.5099798946       16.7287993563
  C        10.2885975898        5.4160435741       15.5445546643
  H         2.9704286181        4.6027187572       28.2260295810
  H         3.4316602193        6.2477211569       28.2736567005
  C         1.7376414692        5.6547545049       29.7795410300
  H         5.0226508247       -1.4684181047       32.2702760514
  C         4.6764875811        0.0794728954       33.6902078436
  H         4.8058980282        0.8338872026       19.3067537403
  H         5.5097576943        0.8487384175       17.7394557280
  C         3.9614491750        2.4372425150       18.0667607381
  H        12.4557402193        0.8507895574       22.1573502078
  H        12.5681996432        0.3224048063       20.4578819876
  C        13.8265627313        1.9889824800       20.9230711801
  N         9.6182841091        8.3402171390       17.8390884706
  C         9.9993277012        8.1909711421       15.5078012858
  C        10.3951821979        6.0983869745       14.3532366862
  H        10.3851640944        4.3447232503       15.5344437785
  H         1.5829167939        4.5674512027       30.0905735650
  H         2.4292174654        6.0991566330       30.5510350058
  H         0.8877438131        6.3435412546       29.7444014907
  S         4.4987943284        1.6893706249       34.3146107668
  C         4.6630713998       -0.9637090914       34.7300950661
  H         3.8669627377        3.3054765479       18.6524367928
  H         4.2466073235        2.8875127940       17.0879443300
  C         2.6290360809        1.7365148157       17.7851235748
  H        13.8359186919        2.7242788110       20.1355721011
  H        14.5927987039        1.2967131956       20.6570305880
  C        14.3312665472        2.7087388990       22.2608033406
  S         9.7325374941        9.8938233602       17.3138155838
  N        10.0144828682        9.5724164710       15.7917688553
  C        10.3169363155        7.5811374113       14.3049528004
  H        10.7363445241        5.5652269151       13.4908109216
  C         4.2125913697        0.8803576645       35.8931582561
  N         4.3658727415       -0.4277516168       35.9496870489
  O         4.5606715616       -2.1151821237       34.4387584090
  H         2.1228983021        2.3239115872       17.0238712503
  H         2.0487493623        1.8049267677       18.6619551995
  C         2.5260549459        0.2426614391       17.3812982051
  H        15.0347198937        3.5355366171       22.0566752689
  H        13.4618452265        3.1833138917       22.7522751958
  C        14.8840880982        1.7213013436       23.2498708239
  C        10.7147547632        8.4971728645       13.2157973804
  S         4.1310994925        1.7674134037       37.4181228459
  C         4.2509015601       -1.2040701607       37.2067214184
  H         1.9109933269        0.1746705207       16.4689058469
  H         3.4871692274       -0.1750007452       17.1073911682
  C         1.7884930963       -0.4539877833       18.4580729003
  H        14.8920844852        0.7381710785       22.8682745367
  H        14.1748452401        1.6763255045       24.0672492975
  C        16.2857878278        2.0704170113       23.8144601556
  H        10.2592029292        9.4274226368       13.4092423050
  C        11.4125817293        8.3273465328       12.0003570694
  H         3.5864294697       -0.7313335506       37.9158015909
  H         3.7480166452       -2.1377107714       37.0400977349
  C         5.6226082023       -1.5687914383       37.7466029992
  H         0.7648763236       -0.0382928744       18.6004996288
  H         2.2658888988       -0.4753052175       19.3770565537
  C         1.3795543519       -1.8611974855       17.9185250730
  H        16.2347583441        3.0703038766       24.1818950926
  H        16.5841090095        1.3948371706       24.6053080418
  C        17.3581968867        2.0232665887       22.8152064371
  S        11.9797783589        6.9003794614       11.3721858926
  C        11.3704183908        9.5048820642       11.1345330383
  H         5.8969914182       -0.8419691515       38.5632059000
  H         5.7816808981       -2.6337539985       38.0545491118
  H         6.3617223977       -1.4872148407       36.9628027684
  H         2.2955971857       -2.1837709172       17.3508141067
  H         0.6885146720       -1.7236880108       17.1310315918
  H         0.8590338382       -2.6086053978       18.5683069533
  H        17.1726171097        1.2564549409       22.0993380850
  H        18.3678347189        1.8072581687       23.1875446428
  H        17.4574933481        2.9847159938       22.3319647374
  C        12.3590535059        7.8596683296        9.9497174712
  N        11.9653249111        9.1432266549        9.9882585487
  O        10.7554098056       10.5432725293       11.3828656933
  S        12.7985637002        7.2119639786        8.3754159558
  C        11.8885022586       10.0022877660        8.8075538175
  H        11.8682893488       11.0509780542        8.9570410472
  H        12.7433760467        9.9008148629        8.0987755727
  C        10.6209898000        9.7592715853        7.9478535387
  H        10.8347603906        9.7532968581        6.8671336954
  H        10.1528922163        8.8841423604        8.2556283334
  H         9.9896733263       10.6064397049        8.1079958620
  H        21.3823312727       11.3829390418        3.8413300672
  C        22.0526282530       10.6023397409        3.7056673156
  H        21.4649090153        9.7161810342        3.5096010670
  C        22.8920600403       10.4246356307        4.9499624062
  C        22.8120219423       11.0530350029        2.4236149723
  C        22.0848307946       10.7188216853        6.2185149814
  H        23.1423939012        9.3909341817        5.1282994197
  H        23.7842429490       11.0748367386        5.0020193568
  H        22.9778104028       10.2271345620        1.7459388838
  H        23.5976281365       11.7913184557        2.4409511359
  H        22.0708280230       11.7031080188        1.9465430967
  C        21.2921982511        9.4403231097        6.7747208538
  H        22.8032665375       11.1197431522        7.0052865014
  H        21.2610299461       11.3847246661        6.0076679316
  C        20.4251326791        9.9238867133        7.9135558629
  H        21.9554954034        8.7518764868        7.1913056995
  H        20.8232878830        8.9302898125        5.9261660140
  C        19.1708320327       10.7366941208        7.6452689837
  H        21.0393435863       10.4719251151        8.6187842405
  H        20.1920774933        8.9703620768        8.4257277550
  C        17.9242378182       10.0716337130        7.0261461550
  H        18.8190385700       11.2160522998        8.6034966586
  H        19.3882608768       11.6416195031        7.0080722122
  C        16.6792584097       10.8876847780        6.8750929211
  H        17.6127609556        9.1460424139        7.5432884861
  H        18.1849065637        9.7191540620        6.0288619421
  C        16.9978123165       12.2171158457        6.2110651176
  C        16.2177281291       11.5978125736        8.1010864298
  C        15.4152959569       10.3267681611        6.0972913770
  C        16.6610135001       13.3761783222        6.9865276428
  C        17.6207635012       12.6540318584        5.0498225492
  C        16.1420822306       12.9444312371        8.1730276861
  C        15.8493681861       10.8714764621        9.2028163760
  H        15.7273259137        9.7610762628        5.1850494826
  H        14.9607314445        9.6205810827        6.7001052325
  C        14.3784038389       11.2719663411        5.6447145788
  S        16.9572931827       14.8162658773        6.1811386778
  C        17.7573851144       13.9511022285        4.9754063713
  H        18.0783331829       11.9636675874        4.4080775429
  C        15.6688025054       13.5305987632        9.3314595817
  H        15.8433291668        9.8062839101        9.0357541752
  C        15.4305167902       11.4559711999       10.3706503491
  H        14.7811936500       12.1596644557        5.0537126189
  H        14.0012242069       11.5255534598        6.6374070065
  C        13.2096989854       10.6088866567        4.8081919525
  C        18.2929743290       14.7360657371        3.7625028391
  C        15.3101585657       12.8193303666       10.4926156462
  H        15.7503598172       14.6090254904        9.4027024367
  C        14.9720988137       10.9567921796       11.5816315096
  H        12.4100778671       11.3357970713        4.9667811283
  H        12.9332248210        9.6288223926        5.2058134172
  C        13.5521780920       10.5078557866        3.3222914963
  C        18.1728575458       16.1198945850        3.5558693173
  C        18.7015971573       13.9628466989        2.5468207582
  C        14.8322950637       13.3964700165       11.8103456516
  C        14.5054723983       12.0217076020       12.3403455307
  S        14.6699615972        9.4031838841       12.2166619639
  H        14.1648434116        9.5932735506        3.1315308602
  H        14.1963082561       11.3533080360        3.0776114823
  C        12.3287428707       10.4859170013        2.3938467639
  N        17.7625395232       17.1154127587        4.5280243703
  C        18.3374422897       16.7001681308        2.2857472206
  C        18.9633913542       14.5656197479        1.3473552563
  H        18.8739992097       12.8887423505        2.5573993245
  C        13.5958603474       14.2792817099       11.5915865828
  C        15.8843052555       14.0026448308       12.7731979455
  C        13.9888562541       11.5571518104       13.5756207656
  C        14.0635031634       10.1965832255       13.6653041210
  H        11.4936512487        9.8858124416        2.8057317458
  H        11.9270040498       11.4751746101        2.2495517547
  C        12.6612569822        9.8145926528        1.0822040960
  S        17.8526758044       18.6235177407        3.8591885562
  N        18.1193275641       18.1022625895        2.3304173907
  C        18.7241576104       16.0052673615        1.1593292281
  H        19.1763918781       13.8549181140        0.5155952761
  H        13.7947873016       15.3054906796       11.3406815271
  H        13.1323623166       14.3938201103       12.5752285263
  C        12.5405589272       13.5847576737       10.6588621992
  H        16.2532272300       14.8671740258       12.2936577126
  H        15.3858076906       14.4720531995       13.6159108477
  C        17.0942333913       13.1074019652       13.1465486801
  H        13.5615985816       12.1837816819       14.3117008144
  C        13.7151943901        9.3687064577       14.8432161447
  H        11.7577675134        9.4988099616        0.4482108517
  H        13.0830797025        8.8672216654        1.1156477484
  C        13.6054820408       10.7436089561        0.1718267092
  C        18.8341007754       16.6475430196       -0.0894878842
  H        12.9559192822       13.5115463271        9.5721069700
  H        12.3370825473       12.6001176461       11.0765628664
  C        11.2101532947       14.3409862763       10.5851816538
  H        17.2048259065       12.5958414298       12.2219860297
  H        16.7127705860       12.3810540216       13.8659698162
  C        18.3077433403       13.7731040240       13.7212613880
  C        13.7616670902        7.9816656734       15.0017625086
  C        13.5806621198       10.1463895743       16.1342584527
  H        13.9525947101       11.6647930736        0.6686132702
  H        14.5194489768       10.1600918443       -0.0498903904
  C        12.9721096335       11.1987606745       -1.1464882696
  H        18.4886124578       17.6660634193       -0.0498828987
  C        19.2829381621       16.3047048867       -1.3293186511
  H        11.4057397564       15.1300367323        9.8942260637
  H        10.9731739503       14.7292672905       11.5868495330
  C        10.0386193626       13.4630010538        9.9991852701
  H        18.5497050150       14.6237859397       13.1422004185
  H        18.0360103247       14.0034757604       14.7419871345
  C        19.5145762084       12.9320036412       13.7103353425
  N        14.2555096859        7.1225204267       13.9995947580
  C        13.4448754809        7.3131036532       16.1475915368
  C        13.3701260203        9.4659591274       17.3311262169
  H        13.7288238934       11.1548372429       16.2551939711
  H        11.8680344195       11.3100014385       -0.9168978780
  H        13.1214476056       10.4853158055       -1.9681129444
  H        13.3324531313       12.1454033395       -1.3687897272
  S        19.8868590541       14.7524157382       -1.7291596391
  C        19.2576957257       17.2410131703       -2.4049580278
  H        10.3736387937       12.9203390105        9.1442221680
  H         9.8047491110       12.7043405184       10.7359949111
  C         8.8846038172       14.2716421379        9.5387443794
  H        19.5366697387       12.4675190115       12.6878032293
  H        19.3933053081       12.0063560343       14.3629106721
  C        20.9206917684       13.6271985611       14.0076592995
  S        13.8620968904        5.6192697878       14.4478731035
  N        13.4741737902        5.9158973440       15.9895727578
  C        13.0718075545        7.9720093349       17.3547811805
  H        13.4975454352       10.0765129971       18.2170893467
  C        19.8271232113       15.2779687375       -3.3781681520
  N        19.6133565679       16.6301036657       -3.5428307989
  O        19.1651119856       18.4352462369       -2.2334165623
  H         8.8511153527       15.1878479241       10.0798508933
  H         9.1305384526       14.7357049987        8.6063760323
  C         7.5625979007       13.5049951230        9.5261828292
  H        21.6303540995       12.9016674054       14.2771589151
  H        21.3554222974       14.0563624717       13.0878452777
  C        20.8670739995       14.7738966507       15.0145274264
  C        12.7587105481        7.1956702845       18.5100303733
  S        20.2390468411       14.3333383577       -4.7628041164
  C        19.5122153013       17.3611954702       -4.8385067969
  H         7.7389220712       12.8188570772        8.7300754313
  H         7.3478258230       12.8273636410       10.3906424369
  C         6.2820729637       14.2886794271        9.0368024893
  H        21.6414907997       14.7610934803       15.7415927627
  H        19.9597122376       14.8218755245       15.5630924641
  C        21.0507364951       16.1288848951       14.4211557088
  H        13.1796249513        6.2107717485       18.4576812299
  C        12.4774672954        7.4521288644       19.8339627363
  H        20.0389166256       16.7259153760       -5.5308010035
  H        20.1226272986       18.2441726335       -4.9571834540
  C        18.0923945735       17.4311164123       -5.3399624558
  H         5.9455087070       13.9048062660        8.1208528156
  H         6.6094752602       15.2418350716        8.6364191689
  C         5.1066289022       14.4889410065        9.9600283315
  H        22.0235887288       16.1762433921       13.8812999823
  H        20.3558933940       16.3329337606       13.6254604361
  C        21.0127471309       17.3891890792       15.3373115084
  S        12.1109072984        9.0029830683       20.4818657996
  C        12.3326199917        6.2956826538       20.7861660891
  H        18.0948652757       17.6489024181       -6.3904087276
  H        17.5638334034       18.2551445241       -4.7602797466
  H        17.5864129545       16.4888175065       -5.1707873298
  H         5.4108680833       14.9719326466       10.8632832209
  H         4.4296809086       15.2116811958        9.5798306611
  H         4.6624591394       13.5373500215       10.1487734352
  H        21.7489085503       18.1377894970       15.0085432556
  H        20.0257623793       17.8555427719       15.3380561295
  H        21.3363343481       17.1935960436       16.3769353358
  C        12.0081495941        8.1291245484       22.0089403344
  N        11.9555576694        6.7451591315       21.9882804680
  O        12.3197151819        5.1253372093       20.3934697920
  S        11.5694911798        8.7437327952       23.5858242580
  C        11.8203490638        5.8863992843       23.1260394643
  H        11.6280265751        4.8466009523       22.8872819776
  H        10.8881838896        6.1471345273       23.5844092224
  C        13.0293300889        5.9144349127       24.1170839880
  H        12.7359539650        6.2629633236       25.1567988047
  H        13.8804234570        6.5198006783       23.8153552124
  H        13.2946514471        4.8913651950       24.2590250910
