352
 i =    28300, time =    28300.000, E =        24.5116167805
  H        12.2590245048        6.6206725213       32.0595248197
  C        11.6737934962        5.6707002050       32.2450053562
  H        12.4602081814        5.0400487231       32.0140474397
  C        10.6108656255        5.4837923167       31.1620958017
  C        11.0701477826        5.3722846793       33.7354005646
  C        11.0421424876        5.9308924225       29.7888862827
  H        10.4402469952        4.4056302445       31.1224775546
  H         9.6419164022        5.9406829787       31.5018200330
  H        11.0679015215        4.3034887439       33.9306817038
  H        11.6397013040        5.9639727349       34.5744588000
  H        10.0099178159        5.6310195166       33.6287172706
  C        10.1644077188        5.2761116263       28.7650609748
  H        12.0641872865        5.5707156212       29.7257222702
  H        10.9993373198        7.0230229204       29.7602108833
  C        10.6974878754        5.4294174499       27.2812508748
  H         9.9799240092        4.2350882671       29.0076490928
  H         9.2236621695        5.7469998760       28.9376863673
  C         9.6813174154        4.9839705843       26.2598835837
  H        11.6241306748        4.8823381294       27.0654753074
  H        11.0580959797        6.4526036442       27.0608871296
  C         8.5084283573        5.9121430770       26.2171927525
  H        10.1671564126        4.7942905984       25.2919491245
  H         9.3940990225        3.9944786878       26.5634829885
  C         7.3019382542        5.2827347240       25.4945088318
  H         8.1868728969        6.0951443825       27.2634296597
  H         8.7051278094        6.8996853216       25.7993465330
  C         6.9466882427        3.9258075466       26.1364436975
  C         7.6397621830        4.6045720793       24.1802339415
  C         6.0990416617        6.2854067916       25.4996010903
  C         7.0929563236        2.8980988468       25.2492580128
  C         6.5785419651        3.5042590280       27.4370219203
  C         7.5838628799        3.2433314718       23.9958253076
  C         8.1037690789        5.2967008413       23.1097889527
  H         6.2914319788        7.1127245992       24.8383347233
  H         6.0221044735        6.6915214428       26.5032596599
  C         4.8462249094        5.5855526696       24.9128997298
  S         6.6194330094        1.3747225149       25.9934024264
  C         6.2624298029        2.1414383656       27.4704935616
  H         6.5865965807        4.2445865947       28.2399072363
  C         8.0475052244        2.6537018823       22.8742457033
  H         8.1125618846        6.3971517585       23.1393255516
  C         8.5092792756        4.7549770544       21.9520700339
  H         5.0747185729        4.9720346707       24.0600781961
  H         4.6320952476        4.8177171995       25.6188998363
  C         3.6351534600        6.5587960632       24.7549786598
  C         5.8391181151        1.4106483850       28.7079675192
  C         8.4617652521        3.3969301441       21.7682002283
  H         8.0308753097        1.5872798507       22.7790200520
  C         8.8212842379        5.1444712662       20.6722514528
  H         3.0537526824        6.0986061944       23.9514242813
  H         3.9555154496        7.5917636539       24.4019900590
  C         2.9771209385        6.6910928168       26.0556378099
  C         5.9661630900        0.0373811405       28.9518521442
  C         5.4661797284        2.1948890394       29.9015980412
  C         8.8337905245        2.7163602770       20.5117403320
  C         9.0353286423        4.0476209057       19.7946063911
  S         8.9956708255        6.6720001585       19.8938057334
  H         2.1217881673        7.3837910046       25.9085274060
  H         3.5960995501        7.0806664320       26.8321128044
  C         2.2132420143        5.3983343315       26.5385080431
  N         6.3731668021       -0.9664315879       28.0302448421
  C         5.7439451846       -0.5381932816       30.1773567387
  C         5.2930749797        1.6605638500       31.1759676095
  H         5.4566972843        3.2685599332       29.8628393775
  C         7.5975292041        1.9006843268       19.9438517064
  C        10.1293193761        1.9151697589       20.5998556658
  C         9.2986509442        4.4729396435       18.5396925293
  C         9.3842616958        5.8414951633       18.4398500829
  H         1.4899106699        5.2034237829       25.8538025578
  H         2.9424624528        4.5543042475       26.5678719853
  C         1.4633794906        5.5473709793       27.9228221064
  S         6.2926508201       -2.4442223449       28.7454023166
  N         5.7342010776       -1.9548497007       30.1975456194
  C         5.3803337299        0.2228141319       31.3417887427
  H         5.0186206060        2.3552615330       31.9764728193
  H         7.3074183130        1.1342070091       20.6945229327
  H         7.8959576666        1.2759249563       19.1045138613
  C         6.4386552294        2.7493300250       19.5577821611
  H        10.3672908230        1.3348165415       19.6700886650
  H         9.9152666441        1.2328279191       21.3535600326
  C        11.4509142248        2.6071748222       21.0602975680
  H         9.5219560759        3.7261313567       17.8225032218
  C         9.7172715134        6.5699414608       17.2143644594
  H         0.8429997740        4.7237793226       27.9377386304
  H         0.9076926219        6.4592935029       28.0394302024
  C         2.4123614212        5.4637690036       29.1399460764
  C         5.1236253252       -0.4911314346       32.5702052701
  H         6.6056462980        3.6193481689       18.9396238759
  H         6.0111733563        3.1106743246       20.4434274595
  C         5.3763068850        1.9235438430       18.8489496327
  H        11.3692374723        3.3737864982       21.8045099812
  H        11.8198036832        3.0931337084       20.1369306829
  C        12.5450430548        1.5905635493       21.2337462233
  C         9.7806040060        7.9388936915       17.0372218005
  C         9.9827375008        5.7481361542       16.0595484548
  H         3.0312669128        4.5274624053       29.1795028087
  H         3.1833780279        6.1765913957       28.9873420493
  C         1.7591343653        5.7271042677       30.5031295777
  H         5.1827469651       -1.5449948125       32.4103054028
  C         4.6363120811       -0.0651025316       33.8042397408
  H         4.9111138897        1.2827053641       19.6974723012
  H         5.8194494673        1.1852781416       18.1616137403
  C         4.2168081353        2.6798940949       18.2503836674
  H        12.3289424148        1.0686384411       22.1542321983
  H        12.4328992063        0.8438538610       20.4271813304
  C        13.9577961401        2.0936912476       20.9856760600
  N         9.4071028020        8.8691541090       17.9767625155
  C        10.1859982417        8.5220045621       15.8369560469
  C        10.3995965424        6.3238257765       14.8697750790
  H         9.8661001540        4.7079490923       16.0644421028
  H         2.4690014854        6.1435038610       31.2158649883
  H         1.0128082522        6.4896503966       30.4878614404
  H         1.1793293406        4.8418827072       30.7751133334
  S         4.1948888177        1.5634787732       34.3704950228
  C         4.4502742224       -1.1080637832       34.8135151270
  H         3.8872056817        3.4657220370       18.9345586512
  H         4.4420080733        3.1987236812       17.3359616221
  C         3.0233201714        1.7912333057       18.0520457291
  H        13.7742963197        2.6885611112       20.0963809629
  H        14.5680197686        1.2105753807       20.7247990059
  C        14.5039821641        2.9317236659       22.1040264460
  S         9.5754407799       10.3443844177       17.3095388679
  N        10.0383040821        9.9116227777       15.8109915975
  C        10.5737699419        7.7791760919       14.7013053043
  H        10.5511532154        5.7335039407       14.0442593710
  C         3.9187316339        0.8498500378       35.9341848350
  N         3.9887798348       -0.5306550096       35.9776788457
  O         4.5702448017       -2.3292126074       34.6500657762
  H         2.4031055638        2.5061496858       17.6011660255
  H         2.7529064587        1.5190811940       18.9766144694
  C         3.2130111737        0.6893709223       17.0576681033
  H        15.1174150544        3.5860813343       21.5829783578
  H        13.8035991256        3.6620230001       22.6197084481
  C        15.1212182758        1.9995635170       23.1552859644
  C        10.9682801520        8.4802088011       13.5407779135
  S         3.6132128150        1.7603872590       37.4139412787
  C         3.8360186074       -1.1809428672       37.2387102957
  H         2.4465121323        0.6476110889       16.3063899254
  H         4.1703255458        0.7074468686       16.5448115872
  C         3.0754051589       -0.6760285795       17.6723559210
  H        14.9056258478        0.9254265056       22.9076480811
  H        14.5358653525        2.2470755438       24.0397210998
  C        16.6032283197        2.1605295397       23.5413606766
  H        10.8182292091        9.5319850195       13.6496357665
  C        11.4870433686        8.1299485758       12.3083652947
  H         3.0195311025       -0.8016826613       37.7465492475
  H         3.4899701394       -2.2708350516       37.2078910136
  C         5.1063722498       -0.9935798783       38.0479239091
  H         3.7896614238       -0.7787285583       18.5233884250
  H         3.4937487253       -1.4817892868       17.1672741151
  C         1.7774487649       -1.2098583760       18.3319606563
  H        16.7148266210        3.0684232598       24.0732832840
  H        16.8232707734        1.3596691536       24.2520442173
  C        17.6094667030        2.1587581969       22.3938129767
  S        11.7100966419        6.4813312789       11.8143254535
  C        11.6945990413        9.1752754002       11.3053708295
  H         5.3905015043       -2.0747921673       38.2946789499
  H         5.9376303737       -0.6516989117       37.4666880926
  H         5.0588194550       -0.5042938646       39.0362474627
  H         1.9452585427       -2.1240802567       18.9474550307
  H         0.9885497007       -1.3716019135       17.6000148605
  H         1.3969161977       -0.5047834506       19.0629553192
  H        17.7593917006        1.1449437908       21.9820934598
  H        18.5819354151        2.4892418703       22.7012211341
  H        17.2359244880        2.7633216423       21.5778774831
  C        12.2161125307        7.2424220918       10.2796619258
  N        12.3451328211        8.6344330306       10.2753143466
  O        11.4629830450       10.3934971574       11.4136936708
  S        12.9927104682        6.2783184881        9.0411808065
  C        12.7297566552        9.4227953175        9.0639695706
  H        13.0759247605       10.3542176135        9.4339152715
  H        13.6367751458        8.9641080917        8.6760289138
  C        11.6025163916        9.4759996577        8.0340330972
  H        12.0618708261        9.2988220728        7.0671046711
  H        10.9122562065        8.7140306948        8.2267669761
  H        11.0506468290       10.4182642722        8.0472117212
  H        20.8939548889       11.6085637006        3.5570408924
  C        21.3054285047       10.6200870831        3.3598479362
  H        20.4363377730        9.9341445840        3.5809858444
  C        22.2589865529       10.4866001062        4.5434059850
  C        22.0156497760       10.4266869613        1.9617008290
  C        21.5564337074       10.6564628801        5.8817446497
  H        22.8088186036        9.5136542085        4.5254178196
  H        23.1160545725       11.1925768888        4.4300692294
  H        23.0441710680       10.8045470540        1.9678973925
  H        21.5553815500       10.9275390576        1.1289164227
  H        22.0605975355        9.4260444975        1.6676090714
  C        20.8266784230        9.4197637055        6.4155946403
  H        22.4782551492       10.9334519738        6.4857662458
  H        20.9352966949       11.5499639891        5.9941165764
  C        20.2425007445        9.7059738232        7.8261926770
  H        21.5547478677        8.6418654819        6.6819444923
  H        20.2477310722        8.9110745114        5.5916548830
  C        19.0361687726       10.6871495388        7.7885027898
  H        21.1055850895       10.0821859025        8.2952866783
  H        20.0082471090        8.8000224661        8.3530130591
  C        17.9069861586       10.1818198286        6.8741007072
  H        18.6608549658       10.8158595864        8.8052853721
  H        19.4091208211       11.6540433612        7.4831864467
  C        16.7495912361       11.1744982729        6.7506283234
  H        17.5380678691        9.2735729521        7.1975023879
  H        18.2498366800        9.9526473287        5.8812190443
  C        17.1455758456       12.5239340396        6.2234135516
  C        16.2985252933       11.7530839461        7.9952585390
  C        15.5571280986       10.4818331507        6.0300755634
  C        16.8619008129       13.5944395245        7.1052150247
  C        17.7805575385       12.9367781617        5.0797329035
  C        16.3401257512       13.0818184154        8.2044038899
  C        15.8994990477       11.0730124434        9.1987137574
  H        15.8561742803       10.1304533239        5.0842061522
  H        15.3806908128        9.5804053382        6.6640554235
  C        14.3114614690       11.4173364287        5.8040725432
  S        17.2998505162       15.1218315472        6.4396374342
  C        17.8832373415       14.3150929365        4.9722839514
  H        18.0677081846       12.2552058039        4.3273400317
  C        15.9823787082       13.6260354130        9.4290491508
  H        15.8884224198       10.0274427976        9.1171044257
  C        15.5018416142       11.5970447263       10.4000359669
  H        14.6355468771       12.4063780987        5.6369739986
  H        13.7857326652       11.5115857883        6.7847504041
  C        13.2989517803       10.9120404440        4.7203599369
  C        18.2499063016       14.9606124156        3.7003515619
  C        15.4483966678       12.9168847708       10.5225212027
  H        16.1108927605       14.6663297271        9.5707552819
  C        15.1429558447       11.1332485489       11.6523739609
  H        12.4583315094       11.6267900342        4.6876926674
  H        12.8579722675        9.9539511459        4.8973999599
  C        13.8585425461       11.0350280524        3.2981499202
  C        18.1107685486       16.3333133704        3.3547002494
  C        18.7059240869       14.0980952868        2.5179185868
  C        15.0863524815       13.5836708553       11.8040464506
  C        14.8674853919       12.2208592981       12.5001530412
  S        14.8549577988        9.5800938719       12.3538200343
  H        14.8832706694       10.5212043405        3.3953817833
  H        13.9814471677       12.1006805099        3.2083292043
  C        13.0013835998       10.4765427390        2.1525498757
  N        17.7247087657       17.3272124950        4.2492074976
  C        18.4175822878       16.8074135748        2.0772653954
  C        19.0110138404       14.6085654843        1.2899402647
  H        18.8382271361       13.0205431856        2.6800648464
  C        13.7335100335       14.3970525530       11.7235675002
  C        16.2854147655       14.2976934915       12.4653906311
  C        14.5647587946       11.7852839111       13.8017364371
  C        14.5543011768       10.4216547148       13.9090825527
  H        12.6560225617        9.4847952522        2.5024147169
  H        12.0582523855       10.9674241223        1.9399021778
  C        13.7776496667       10.5338891346        0.8749451927
  S        17.7304140165       18.7149479558        3.4573078193
  N        18.2150134392       18.2070501738        2.0003907127
  C        18.8804732336       16.0257907200        0.9923640110
  H        19.3710364105       13.8937233440        0.5951111785
  H        13.7651726439       15.1835654967       10.9988282539
  H        13.4053542551       14.8413560064       12.6546493177
  C        12.6035676509       13.4166878115       11.4085771200
  H        16.5483533729       15.1071538125       11.7709860845
  H        15.8889753324       14.6765570262       13.3962944296
  C        17.5724083791       13.4468615049       12.7946980866
  H        14.3205977513       12.4923372576       14.5979970946
  C        14.1891476838        9.6863007193       15.1190945073
  H        14.7726289963       10.1795994066        1.0857267907
  H        13.8672395132       11.5773414140        0.5676392431
  C        13.1304418454        9.8197646816       -0.3080517147
  C        19.0171084229       16.6587254619       -0.2841833162
  H        12.8384826878       12.8053212875       10.5895204939
  H        12.4844638154       12.6800328259       12.2162146953
  C        11.2704226485       14.2018583996       11.3005909141
  H        18.0028629285       12.8230121553       11.9531802355
  H        17.2154625433       12.6652838342       13.5173939847
  C        18.7187508653       14.3076375822       13.2604373169
  C        14.0650789614        8.2973011599       15.1813237411
  C        13.8658732203       10.4825688764       16.3525962493
  H        13.7842030776        9.6024763143       -1.1722755430
  H        12.7393955206        8.8595292847        0.0541103198
  C        11.8028817783       10.4166594014       -0.6334785570
  H        18.8670786241       17.6765153342       -0.3055736671
  C        19.2519776129       16.2808636329       -1.5653539782
  H        11.3092706541       15.0443712083       10.5675923401
  H        11.0140577725       14.6873977824       12.1991633205
  C        10.1627125791       13.2462419498       10.8614290639
  H        19.1612208241       14.8668846077       12.4171439608
  H        18.2441826843       14.9995448624       13.9715396225
  C        19.8115072728       13.5163476751       14.0051526250
  N        14.2963865836        7.3821603918       14.1886079803
  C        13.6357191065        7.6247297590       16.3325466464
  C        13.4685636166        9.7924006740       17.5134407478
  H        13.8332079050       11.5752529355       16.3634734111
  H        11.6772982875       11.4625416951       -0.2707096801
  H        10.9666913811        9.8831709922       -0.2074191265
  H        11.7224854615       10.3311380936       -1.7007400184
  S        19.5268776507       14.6314308872       -2.0727199675
  C        19.4491353395       17.2942273844       -2.6381739443
  H        10.3870342964       12.6451722796       10.0342867117
  H         9.9909323918       12.5920667751       11.6292105826
  C         8.7849869567       13.9905438284       10.6823938996
  H        19.9928265711       12.6176377780       13.4077536817
  H        19.4163382430       13.4047768940       15.0355441451
  C        21.0579990698       14.3412725046       14.2219670940
  S        13.9513384636        5.8890489704       14.6793165702
  N        13.4145410319        6.2649532178       16.1576972948
  C        13.3469437121        8.2932480567       17.5103036847
  H        13.1677820042       10.3258509527       18.3649440365
  C        19.8591414957       15.2611550460       -3.6507071706
  N        19.7432560178       16.5699443460       -3.7817694838
  O        19.2161462341       18.5303640156       -2.4456697262
  H         8.2228308952       13.9904708321       11.6418992547
  H         8.9732905628       15.1104629349       10.6117672307
  C         7.9893504193       13.3977434990        9.5254742498
  H        21.7395027207       13.6632236318       14.7037159080
  H        21.5586508055       14.4942817032       13.3007874844
  C        20.9676655936       15.6639149035       14.9948645440
  C        12.9147861985        7.5595396744       18.6375694423
  S        20.3590535463       14.3910379313       -5.0596576102
  C        19.8375674854       17.3116347331       -5.0209807717
  H         8.6549406846       13.3808103279        8.7085056755
  H         7.7107785269       12.3996833763        9.7963486309
  C         6.7026602582       14.1956225113        9.1996759945
  H        21.8066841329       15.6451111348       15.7510934454
  H        20.1296230190       15.6854337656       15.7218606271
  C        21.0612800989       16.9664413520       14.1777759210
  H        13.1381072638        6.5681742404       18.5870310160
  C        12.3960867040        7.8979946276       19.8901211695
  H        20.1018325235       16.7518353911       -5.9306384486
  H        20.4933012792       18.1020323996       -4.9439781972
  C        18.4472443836       17.9427154608       -5.3403836633
  H         6.2453995209       13.8606720815        8.2069362915
  H         7.0015695917       15.3131316327        9.1428762336
  C         5.6644126897       14.0932412639       10.1909197903
  H        20.7259686933       16.6760227327       13.1742089144
  H        20.2511271601       17.5885078363       14.5889989848
  C        22.4000085512       17.5920048446       14.0471905412
  S        11.9916779761        9.5141532653       20.4592128642
  C        12.3556773276        6.8149728238       20.8919698691
  H        18.0832663877       17.9959269927       -6.3911213899
  H        18.5242907440       19.0030928505       -5.0027762985
  H        17.6255129577       17.4891762543       -4.7801740075
  H         5.9056589508       14.6489187785       11.0952377423
  H         4.6889340827       14.4729482809        9.9128227171
  H         5.4795460812       13.0750486394       10.5016272498
  H        22.5342864071       18.1436398579       13.1608371730
  H        22.7303469954       18.2592349664       14.8965069240
  H        23.2086789639       16.8331715116       14.0639974440
  C        11.7432344947        8.7105965841       22.0071848435
  N        11.8679359720        7.3671137795       22.0403487226
  O        12.5856613371        5.6045578284       20.6830092269
  S        10.9412473686        9.3253356863       23.4715372916
  C        11.4839679353        6.5454315835       23.2464748081
  H        11.3195967766        5.4696437973       23.0637149760
  H        10.5299996531        6.8104466942       23.5706222949
  C        12.5284758982        6.7215010843       24.3364617564
  H        13.1223074068        5.8345655108       24.5260031511
  H        12.1099309400        6.9511995745       25.2775916625
  H        13.2942291020        7.4832202703       24.1332379073
