352
 i =    20200, time =    20200.000, E =        24.8981423646
  H        12.6640191969        6.8826217613       31.9782910713
  C        12.0518205872        5.9750562750       32.1133799462
  H        12.8396205153        5.1553538446       31.9993047104
  C        11.0526244009        5.8608554647       31.0181640063
  C        11.3839417407        5.8276206988       33.5356901547
  C        11.6320721578        6.1398627995       29.6136224029
  H        10.6288724013        4.8688543046       31.1013179581
  H        10.2689153671        6.6583452303       31.2165619864
  H        10.4572616196        6.3226944591       33.5225368232
  H        11.4160829750        4.7855184293       33.7901031047
  H        11.8180688342        6.3589339174       34.3686172758
  C        10.5131905621        6.1349603398       28.5731153779
  H        12.3869740709        5.3848983844       29.3801150790
  H        12.1820388082        7.0996327171       29.5582098576
  C        11.1043238320        5.9981591844       27.2210514973
  H         9.8305053127        5.3543421680       28.7494305066
  H         9.7705229529        7.0130790766       28.6092994991
  C        10.0798963571        5.3733026463       26.2915877947
  H        11.8524015720        5.2378007256       27.3107628306
  H        11.5344270185        6.9277912528       26.7477073267
  C         8.7477948585        6.1362368889       25.9848854512
  H        10.5554990902        4.9840351038       25.4493436585
  H         9.8292555317        4.4014197476       26.7069805642
  C         7.6128762055        5.3607835694       25.2968041238
  H         8.4397038673        6.6072577360       26.9287870430
  H         8.9372072681        7.0112792743       25.3305081735
  C         7.2962930752        4.0663130716       25.9983741904
  C         7.9777722846        4.6212142598       24.0408703911
  C         6.3066526736        6.2068708335       25.1925583328
  C         7.5091151774        2.9638008123       25.2251867231
  C         6.7529013905        3.7661428123       27.2671594366
  C         7.9187918883        3.3103723309       23.9509245052
  C         8.2788970223        5.2709977062       22.8282133939
  H         6.5087689148        7.0608162514       24.4828646281
  H         6.1602931420        6.6784682388       26.1446417697
  C         5.0960913440        5.3053704471       24.6992517685
  S         6.9733084434        1.5059083736       25.9847747011
  C         6.6083560336        2.3981096202       27.3741524955
  H         6.5369966999        4.5537907667       27.9239855593
  C         8.3131414919        2.6746351435       22.7572696947
  H         8.2542295907        6.3414747716       22.8406432046
  C         8.5312886816        4.7021022166       21.6569675774
  H         5.3127650649        4.8925291897       23.6750151384
  H         4.9320883733        4.4272321506       25.3551133212
  C         3.8302789524        6.0699964315       24.2535713591
  C         5.9957711591        1.7269142686       28.5710567685
  C         8.5687413527        3.3627092001       21.5587617479
  H         8.3427815957        1.5662750012       22.7977260719
  C         8.9397575622        5.0805641967       20.4410789113
  H         3.2363503714        5.4750996756       23.5465669892
  H         4.0667350449        7.0730673422       23.8866622941
  C         3.0091262379        6.5219458683       25.5229047451
  C         6.0946081365        0.3376927048       28.8317856744
  C         5.4274497666        2.5334124268       29.6566618981
  C         8.9164985717        2.6792303128       20.3016543583
  C         9.0993212292        4.0275779653       19.6276031110
  S         9.2359414694        6.5867533207       19.7669718912
  H         2.3897835361        7.3714779336       25.2462695563
  H         3.6034773038        7.1165853493       26.2364707413
  C         2.2120009020        5.5391638682       26.3333323698
  N         6.4489809889       -0.6630318916       27.8656344509
  C         5.7627367779       -0.1682338725       30.0598616259
  C         5.0201111588        2.0115593971       30.9199065464
  H         5.1986817742        3.5712862420       29.5022722428
  C         7.7288878848        1.9462506882       19.6569659927
  C        10.2066986234        1.7525695845       20.3829185094
  C         9.4829285722        4.4593223563       18.3778293846
  C         9.5506132641        5.7989363790       18.2420633931
  H         1.4316808020        5.0346193296       25.8197119583
  H         2.8857959025        4.7318845035       26.5263292357
  C         1.5304780463        6.1373464293       27.5722328418
  S         6.4984393498       -2.0592762325       28.6799299370
  N         6.0554839101       -1.5894710175       30.1006941096
  C         5.2751404273        0.5653096792       31.1478769723
  H         4.5890980878        2.6586395597       31.6518426386
  H         7.5932442380        0.9661431713       20.1232579314
  H         7.9573607844        1.7630255369       18.5778693240
  C         6.3613930259        2.7701263038       19.7247388855
  H        10.4700926728        1.5004293037       19.3650012552
  H         9.9302699635        0.8427767920       20.8416603528
  C        11.3094988310        2.3260856039       21.2767356908
  H         9.7660237290        3.7611869337       17.6289797496
  C         9.9117148617        6.5213033691       16.9502809959
  H         0.5069758469        5.8461839555       27.7709344123
  H         1.3294912125        7.2158572824       27.3087363545
  C         2.3094912845        6.0558235930       28.9249925428
  C         5.0224287104       -0.1985188699       32.3145745103
  H         6.5403460806        3.6461159459       19.0293618578
  H         6.0577838412        3.1227865603       20.7090620713
  C         5.2709608769        1.8954236093       19.1225925978
  H        11.0268510212        2.0215662053       22.3138785898
  H        11.3726849608        3.4503809880       21.3025155389
  C        12.6615928890        1.6247588850       20.9872300048
  C        10.0751584954        7.9388606478       16.8296221425
  C        10.2884541569        5.7333077828       15.7460670013
  H         2.8900791828        5.1419521254       28.9646673213
  H         2.9946248821        6.8133097432       29.0373955662
  C         1.5187105730        6.0242774558       30.2098956339
  H         5.3644104175       -1.2126382239       32.3150437965
  C         4.7135721893        0.2615064204       33.5898451884
  H         4.5346094784        1.7080365635       19.8919908243
  H         5.7587808191        0.9557415376       18.8137724394
  C         4.5647690621        2.5385704781       17.8817032482
  H        12.7378427040        0.7752536302       21.7404477992
  H        12.5472819556        1.2179974942       19.9737297782
  C        13.9323233268        2.5015030160       20.8907233381
  N         9.9011356545        8.8584905479       17.8960706271
  C        10.5017473738        8.5917936400       15.6808790360
  C        10.6968829100        6.4204967243       14.6072761237
  H        10.3195626915        4.6379710846       15.7823361442
  H         0.7083007469        6.7144592788       30.2600776795
  H         0.9278531119        5.0774316850       30.2701151437
  H         2.1167564169        6.0812535188       31.0394762310
  S         4.4534496120        1.8900863759       34.0660150968
  C         4.5600175821       -0.7600653273       34.7015231159
  H         4.6309178443        3.7003392393       18.0583718781
  H         5.1545159426        2.3500310397       16.9836323109
  C         3.1291258698        2.0505062292       17.7211864031
  H        13.6398694114        3.3227053344       20.2603038983
  H        14.8393480981        1.9813857413       20.5143959854
  C        14.3906108781        3.0534207127       22.2461404900
  S        10.1573257732       10.3400472880       17.3950824575
  N        10.5069084235       10.0016436954       15.8495352774
  C        10.7711507567        7.9374099960       14.4818436841
  H        10.9784631551        5.8843736559       13.7285704103
  C         4.3343269648        1.2804942962       35.7383236275
  N         4.3072705570       -0.0632582620       35.8951361359
  O         4.6018015376       -1.9629561003       34.4987450353
  H         2.4507216171        2.7657178141       17.1889132989
  H         2.6422670883        2.0181017519       18.7134471172
  C         3.0084727245        0.6609665102       17.1076876159
  H        15.2715168468        3.7275096171       22.1484424098
  H        13.6096352398        3.5338779467       22.9059450988
  C        14.9616807236        1.8116722465       23.0432963929
  C        11.0588195032        8.6431346076       13.2417500731
  S         3.8729031906        2.1945153642       37.2380418510
  C         4.3788682447       -0.6651778083       37.1940042923
  H         2.4972118482        0.6268346568       16.1449112740
  H         4.0019413849        0.2482414528       16.9506783655
  C         2.2490038971       -0.2273230592       18.0602252220
  H        15.1995642812        0.9196936571       22.4329681343
  H        14.1799885425        1.4384631628       23.7192031112
  C        16.2136995040        2.1946971418       23.9117424312
  H        11.0983499649        9.6605792961       13.4740211702
  C        11.3919386804        8.3872620973       11.8948359920
  H         3.6101599025       -0.2996346621       37.8873044481
  H         4.0912297283       -1.7031428672       37.0338744203
  C         5.8423473696       -0.5294852095       37.7780221158
  H         1.3039624846        0.2657350363       18.1640625851
  H         2.5226945532       -0.2614709045       19.0629023538
  C         1.9492404604       -1.6840498426       17.5564073249
  H        16.1240896784        3.1563912409       24.3607895839
  H        16.2246085073        1.4208858794       24.6881589569
  C        17.4578679062        2.1650831021       23.0279269284
  S        11.9318964560        6.8545509783       11.2897041544
  C        11.4934998095        9.5280437435       11.0284266211
  H         6.1514898841       -1.5691824717       37.9858639351
  H         6.3922212007       -0.0422799535       36.9744619579
  H         5.7741338068        0.2083017650       38.6210017536
  H         1.0819486138       -1.8343683309       16.9223410091
  H         1.8428178887       -2.4257007833       18.3462953795
  H         2.8646224334       -2.0595045830       17.0579792796
  H        18.3706108181        2.5156700522       23.5042785249
  H        17.3155528855        2.7712418058       22.0932603167
  H        17.5938683423        1.1212414591       22.7376931584
  C        12.2442570529        7.8134172188        9.8439924026
  N        11.8852839131        9.1174211288        9.8249912626
  O        11.1323397886       10.6324342517       11.3427960759
  S        12.8345279159        7.0513347323        8.3796764217
  C        11.8797533277       10.1390470681        8.7728206907
  H        12.3043676457       11.1068241468        9.0756385072
  H        12.4394200180        9.7086732861        7.9252500446
  C        10.3678630649       10.3515844152        8.3745849092
  H        10.0024888346       11.3762521414        8.2929118258
  H        10.2072097709        9.8064442903        7.4493435179
  H         9.6348132050        9.9935769824        9.0872605984
  H        20.5133215519       11.0057860441        2.9773187807
  C        21.4335871967       10.4614544364        2.9843424203
  H        21.1316076267        9.4410973666        3.0581502249
  C        22.4863180737       10.8825976105        4.0349785551
  C        22.0879550571       10.6469390772        1.5897307761
  C        21.8555502035       10.9154549833        5.4759504343
  H        23.2945284962       10.0802483233        3.9646771595
  H        22.9062967713       11.8010242737        3.6613615643
  H        22.7402529294        9.8587829094        1.3950267683
  H        22.5676685042       11.6227210894        1.4606766955
  H        21.4033815619       10.5938215484        0.8335484103
  C        20.5324839984       10.1760027140        5.7692297353
  H        22.6378770104       10.5991797645        6.2265918431
  H        21.7247556722       12.0451418972        5.6130059591
  C        19.9855505414       10.0232384690        7.2074500241
  H        20.7904465179        9.1728998205        5.4444151553
  H        19.6748087865       10.4972440260        5.1119819703
  C        18.6470670984       10.7171186521        7.4694473455
  H        20.7610764235       10.4325393427        7.8027963831
  H        19.8506229327        9.0006943844        7.5703816868
  C        17.4412740534        9.9243720591        6.9310178560
  H        18.5546493693       10.7481885311        8.5043503303
  H        18.7629236097       11.7214415593        7.0798765583
  C        16.2059103397       10.8947564386        6.8048215010
  H        17.2976945611        9.1342243699        7.7217284262
  H        17.5569646993        9.2593960476        6.1033095887
  C        16.5184265886       12.2718081209        6.1673143769
  C        15.8184154820       11.6132807338        8.1675635485
  C        15.0438729047       10.1200799231        6.1381161870
  C        16.4204030144       13.3363982347        7.0294841264
  C        16.8984210313       12.6667892349        4.9108304172
  C        15.9471329521       12.9637454296        8.2734673399
  C        15.4206196334       10.9204340077        9.3036244385
  H        15.4360687612        9.6825696177        5.2229124440
  H        14.7329616006        9.2908483087        6.7359656292
  C        13.8042410222       10.9734278583        5.7217851026
  S        16.9480044786       14.8137474802        6.3296495526
  C        17.2321612276       14.0277146477        4.8540386113
  H        16.9741380033       11.8682302807        4.2100419987
  C        15.7083680741       13.5525719402        9.4689622695
  H        15.2326703150        9.8795662634        9.3035088286
  C        15.1806993784       11.5721063361       10.4913152215
  H        14.2165203437       11.8197050494        5.2629654597
  H        13.2229985262       11.4570989455        6.5476057911
  C        12.8902878628       10.2717038330        4.7193089430
  C        17.7623967896       14.7276800244        3.5684746490
  C        15.3090781996       12.9295021964       10.6179647409
  H        15.6190260665       14.6873761101        9.5512325541
  C        14.8584947702       11.1982089449       11.7628621447
  H        11.9089169907       10.6336171109        4.7575478376
  H        12.8410657046        9.2142796108        4.9706352034
  C        13.3495077767       10.4999020782        3.2808973649
  C        17.8756802162       16.0694846126        3.2984998909
  C        18.2438380623       13.9394654727        2.4120273841
  C        15.0042776408       13.6881622009       11.8772869589
  C        14.7296621884       12.3079275405       12.5858746305
  S        14.5638199483        9.6883896919       12.5106145709
  H        14.4139871421       10.4794623832        3.0379812691
  H        13.1685381853       11.5295482305        2.9449238495
  C        12.7401960157        9.4136605764        2.3715216271
  N        17.4010886193       17.0796010288        4.2048360715
  C        18.2983268910       16.5974044310        2.1054988745
  C        18.8228482754       14.5219706540        1.3182962803
  H        18.2763813549       12.8971342619        2.4550628779
  C        13.7110373658       14.5458421944       11.7211622104
  C        16.1857249924       14.5339126742       12.5356873474
  C        14.3405207748       11.9769833308       13.8451419380
  C        14.2732477431       10.5917410531       13.9793980675
  H        13.4619370371        8.5486467868        2.3152688497
  H        11.7929786272        9.0577251508        2.7337744417
  C        12.3127256348        9.5911982335        0.9822559626
  S        17.5667172384       18.5544883131        3.5188503955
  N        18.1265523213       17.9846315802        2.1462024429
  C        18.7345109650       15.9047498014        0.9494884083
  H        19.3021855170       13.8373268856        0.5174054599
  H        13.7931949887       15.2492624579       10.9254493547
  H        13.4972829003       15.0907773950       12.6579616853
  C        12.4926749857       13.7025118538       11.3676586222
  H        16.3997533826       15.4637681189       11.9848017205
  H        15.7574936017       14.8814852697       13.4855219754
  C        17.4893955881       13.7094044885       12.6229232482
  H        14.3212833244       12.7205284990       14.6450934073
  C        13.9265344118        9.8598831568       15.2773240258
  H        11.3790914542       10.1018090441        0.9925116326
  H        12.2476670995        8.4986633758        0.6470620232
  C        13.2070556327       10.4289858133        0.0817320215
  C        19.1601496593       16.5453275984       -0.2711759407
  H        12.6764701607       12.9926174815       10.6544300004
  H        12.1414390406       13.1187375455       12.2378703905
  C        11.3397844099       14.5430190886       10.9092853345
  H        18.1466470464       13.8439962109       11.7932930334
  H        17.2676577393       12.5941909882       12.7954663559
  C        18.1435960030       13.9288001187       13.9666621126
  C        13.8835909101        8.4765772936       15.4394805821
  C        14.0261673783       10.5327218863       16.5816683374
  H        13.4340777423       11.3045079570        0.6263824408
  H        14.1683770318        9.8407802187        0.0607515378
  C        12.6541098803       10.5999072129       -1.3455617103
  H        19.1198475598       17.6199917514       -0.2293122277
  C        19.4056497662       16.0522380079       -1.5616669849
  H        11.5409032790       14.9522938845        9.9255894850
  H        11.1701319625       15.3182923693       11.6671031565
  C        10.0285649539       13.7556710545       10.9181027594
  H        18.2760420280       15.0470376933       14.0548543013
  H        17.2993455750       13.6333383603       14.6239797656
  C        19.4392839652       13.1478492286       14.3112905267
  N        13.9451593066        7.6208263120       14.3214655073
  C        13.6001579792        7.7890961295       16.6170819589
  C        13.7315195447        9.8925927089       17.7465892527
  H        14.2279744742       11.5638251352       16.5874059638
  H        13.3621641832       11.1987299713       -1.9585697880
  H        11.6790526605       11.1515079759       -1.1626466742
  H        12.5472056745        9.6423548844       -1.7117867622
  S        19.4716973342       14.3291766270       -1.9308765666
  C        19.5445044397       16.9646293054       -2.6997969333
  H        10.1810838367       12.6880741419       10.5038975669
  H         9.6938008534       13.7737829296       11.9831511449
  C         8.9588558354       14.4832989924       10.1139452343
  H        19.6902267398       12.6528435335       13.4218304043
  H        19.4756905124       12.4615031648       15.2027456941
  C        20.5133435901       14.1912083276       14.6497402550
  S        13.7922561645        6.0910500309       14.9121859006
  N        13.6918393247        6.3866043338       16.5059078605
  C        13.3591147289        8.4161790967       17.8449367003
  H        13.7306756621       10.5200257862       18.6068346094
  C        19.8585739735       14.9072167638       -3.5694902271
  N        19.9484619191       16.2520892777       -3.7900924320
  O        19.6396424206       18.2041321056       -2.6091168151
  H         8.2601053393       14.9647965592       10.8255878895
  H         9.3504781462       15.3200543455        9.5411745230
  C         8.1068317499       13.4814430789        9.2455549323
  H        20.1707898235       14.9832979722       15.3520718085
  H        21.3815115352       13.5716443537       15.0496141024
  C        21.0824915339       14.9695827984       13.4699444292
  C        12.9690802769        7.5570475467       18.9564223708
  S        20.1779721128       13.9024299250       -5.0094359628
  C        20.1349789930       16.8706146719       -5.1175121920
  H         8.6431691389       13.3000961934        8.2931963588
  H         8.0464672336       12.5673385217        9.7612532534
  C         6.7841915874       13.9299452423        8.7773989637
  H        20.3257162117       15.3925466607       12.7873670213
  H        21.6952546075       14.2028203091       12.9700562437
  C        21.9748901891       16.1329898604       13.8712846161
  H        13.1343847788        6.4592844887       18.8233853981
  C        12.5211627070        7.8887223689       20.1693891018
  H        20.7978788447       16.2022999595       -5.6774642562
  H        20.6828795620       17.7945666890       -5.0509035059
  C        18.8342791591       16.8512924346       -5.9535986554
  H         6.6193158589       13.3164931971        7.8856902098
  H         6.8473926974       14.9430284632        8.4322001601
  C         5.6782343306       13.6609582960        9.7440137915
  H        21.9405195715       16.2992935598       14.9297356264
  H        23.0131243602       15.8590858320       13.6656771426
  C        21.5923441346       17.5074335357       13.1787124685
  S        12.1043707367        9.4560649593       20.6827552927
  C        12.4081260438        6.8829592356       21.2076883829
  H        18.8970724425       16.1840731587       -6.8001211104
  H        18.6095974151       17.8929300817       -6.1882794731
  H        17.8793785081       16.5739691075       -5.4124997342
  H         5.5440777950       12.6149424802        9.9058750011
  H         5.9440418152       14.0955170248       10.7007015774
  H         4.7098079049       14.1586912220        9.4065329652
  H        21.3620661540       17.3987924174       12.1393996138
  H        20.7391297027       17.9881519960       13.6173604722
  H        22.5642523969       18.0667915330       13.2597145107
  C        11.7595784893        8.7601710918       22.2599042775
  N        11.8774545020        7.4223072693       22.2761954054
  O        12.5735741316        5.7260608244       21.0941566124
  S        10.8779720557        9.5196307415       23.4845384878
  C        11.7465941922        6.6710315795       23.5053022467
  H        11.5258360580        5.7128080945       23.2715976336
  H        11.0034012456        6.9539654818       24.1910362321
  C        13.0509827868        6.6983782997       24.1928223522
  H        13.0391660464        5.8941138980       24.9982833123
  H        13.1507947528        7.6711067782       24.7450930683
  H        13.8924997707        6.6160069197       23.5207368407
