352
 i =    27400, time =    27400.000, E =        24.9052195251
  H        11.6713522699        6.9869378298       31.8233261958
  C        11.4362646035        5.9433167286       31.9568783583
  H        12.2178259419        5.2827151259       31.7137156472
  C        10.1452182509        5.6141468612       31.2092280638
  C        11.3583050617        5.6821522046       33.4428435631
  C        10.1577126325        6.1998282377       29.7371721006
  H        10.0263475070        4.5431694011       31.1772972899
  H         9.2449813315        5.9362834402       31.6711906929
  H        10.3401637786        5.6189589479       33.8573600049
  H        11.8653424766        4.6502817310       33.6010122192
  H        11.7786362085        6.5111934998       34.0221407659
  C        10.1684763823        5.1514848314       28.6249750510
  H        10.9428259676        6.9062058405       29.6867722145
  H         9.2307223354        6.7333536301       29.7055785138
  C        10.5970858292        5.5087331582       27.1848785117
  H        10.9300691473        4.4462926197       28.9479889113
  H         9.1892481707        4.6665763117       28.7552181498
  C         9.6101208077        5.0156769524       26.1238166321
  H        11.5667846418        5.0201425691       26.8758329636
  H        10.6519663751        6.5926253944       27.0063685179
  C         8.3074307777        5.7434397422       25.9244831697
  H        10.1705835167        5.0026327348       25.2061871542
  H         9.4849671720        3.9405049673       26.2321508772
  C         7.1783998102        4.9483539305       25.2676230117
  H         7.9347375963        6.0318121552       26.8890958172
  H         8.5005842838        6.6244877276       25.3563626068
  C         6.9654654597        3.6485089781       26.0135138291
  C         7.7253855734        4.2758240510       24.0371759307
  C         5.8972520078        5.7318592060       25.1157310599
  C         7.2119957639        2.5386588174       25.1437180976
  C         6.5744494274        3.2610756035       27.3034733321
  C         7.7328835048        2.9624095188       23.9037471176
  C         8.3108935607        4.9781964140       22.9585791257
  H         6.1354334818        6.6239143284       24.5685715754
  H         5.6127426936        6.0475011343       26.0723109842
  C         4.7321617958        5.0769736381       24.4767715538
  S         6.7149474657        1.0506284278       25.9003458757
  C         6.3322017595        1.9042496403       27.3690889905
  H         6.6103990438        3.9896060232       28.0823487422
  C         8.1718979558        2.3882016506       22.7594591248
  H         8.2504157163        6.0970218277       22.9685044748
  C         8.6613421440        4.3792910187       21.8105218484
  H         4.9936173392        4.9843179302       23.4890764271
  H         4.4142206168        4.0569880343       24.8890049522
  C         3.5078650088        6.0141956287       24.4990809577
  C         5.8335412370        1.2520359875       28.6034871427
  C         8.6911473942        3.0358683580       21.6711003739
  H         8.1396059075        1.2857772396       22.6936675549
  C         9.0979530208        4.8058410193       20.5796668695
  H         2.7593110630        5.5824305806       23.7247979734
  H         3.8147208977        6.9984476323       24.1706101299
  C         2.8373672874        6.1553543714       25.8861160116
  C         6.0212415110       -0.1313183847       28.9295176638
  C         5.1998608519        2.0608900133       29.6638292286
  C         9.1515859599        2.3793416335       20.4264030583
  C         9.3258169044        3.7359501929       19.7334227839
  S         9.3412505495        6.3417069274       19.8281308601
  H         1.8856484296        6.7273060228       25.9378762583
  H         3.5203446270        6.7441929214       26.4561208754
  C         2.4061365719        4.7080730705       26.4832980795
  N         6.5158787565       -1.1426145679       28.1404363338
  C         5.5283461547       -0.7050514808       30.0951241216
  C         4.9610883104        1.5424396592       30.8981261506
  H         5.0827025822        3.0931613841       29.5149579266
  C         8.1333207381        1.5207604723       19.5656335552
  C        10.4437813534        1.5849158577       20.6261633491
  C         9.6675410897        4.1790272103       18.3993616228
  C         9.7049877407        5.5760352514       18.3322437723
  H         1.6035703708        4.3002644762       26.0113556845
  H         3.2536325835        4.0108810996       26.5070128130
  C         1.8187054603        4.7568148340       27.8630512278
  S         6.1591826108       -2.6648535591       28.7390603327
  N         5.6117597259       -2.1054604787       30.1289900025
  C         5.0740882294        0.0839054738       31.1831320803
  H         4.8658416991        2.2346586227       31.7614116356
  H         7.7317125113        0.8394158555       20.2583323855
  H         8.6787499515        0.9822599916       18.7664892062
  C         7.0577642521        2.2628269783       18.8277860713
  H        10.7592135049        1.1278768080       19.6797275171
  H        10.2449704701        0.7249056779       21.2859807927
  C        11.5968741625        2.4085789144       21.2069412619
  H         9.8958503622        3.4944189330       17.6020235522
  C        10.0596732827        6.3950412800       17.1409537247
  H         1.8812783734        3.7610166810       28.3174287180
  H         0.7265130964        4.9825621413       27.8721812727
  C         2.4355030746        5.7999595033       28.7746884429
  C         4.8385899535       -0.5399385315       32.4508759196
  H         7.5357349035        2.7766710632       17.9791132887
  H         6.6215813490        2.9419501437       19.4429483053
  C         6.0232872341        1.1629522237       18.3392850401
  H        11.4024316516        2.5826504174       22.2964429610
  H        11.5274856677        3.3803913043       20.7855600243
  C        12.9514916342        1.7518252503       21.0077833976
  C        10.1229799623        7.8029930964       17.0091855898
  C        10.2450804290        5.6175281091       15.8022108499
  H         3.5150197826        5.6942179380       29.0054243409
  H         2.4619297296        6.7290319839       28.3449144323
  C         1.8261211474        5.8263518663       30.1890134676
  H         4.8549196235       -1.5889831752       32.3743497216
  C         4.5540535574       -0.1052942511       33.7328662038
  H         5.6213943721        0.5207800441       19.1485777923
  H         6.5007306760        0.3873998019       17.7762600899
  C         4.9522087373        1.7319134602       17.4049071140
  H        12.9767123511        1.2676091908       22.0078905814
  H        12.9811809624        1.0089181749       20.2163539222
  C        14.1632129304        2.7460533144       21.0367398831
  N         9.8596523523        8.7390989370       18.0363523867
  C        10.5309826279        8.4168977204       15.8555691314
  C        10.5580850225        6.3184714984       14.6250356682
  H        10.1492404073        4.5291185262       15.7275588037
  H         2.6844997686        5.5804480735       30.8322484340
  H         1.4730882706        6.8017673206       30.4978475430
  H         1.0746356218        5.1630730987       30.3404339688
  S         4.3789896195        1.5642422050       34.2844641136
  C         4.4492482230       -1.0816396775       34.8134782312
  H         4.9371818357        2.7991172705       17.3530820859
  H         5.2503724562        1.3751076225       16.3836710230
  C         3.5768030822        1.1673022002       17.7959068536
  H        13.9672917088        3.5178750396       20.2761311117
  H        14.9950514316        2.1513660745       20.6260699094
  C        14.6032378680        3.2650985840       22.4457462794
  S         9.8843200547       10.2113212549       17.3565145586
  N        10.5134528853        9.7851432663       15.9041964323
  C        10.7539469799        7.7798125768       14.6247860390
  H        10.6184423748        5.7724494324       13.6804711616
  C         4.3805979846        0.8908861935       35.9154095033
  N         4.3156027232       -0.4434116742       35.9679295636
  O         4.4959644393       -2.3063023692       34.7476992875
  H         2.8480381500        2.0137374597       17.6262386285
  H         3.4863572485        0.8726836910       18.8809676567
  C         3.3499710087       -0.1170511726       17.0704934597
  H        15.4644870837        3.9347589487       22.2876883457
  H        13.7377680967        3.8633824433       22.8179063992
  C        15.1216850620        2.0043377354       23.1338654701
  C        11.0623060981        8.5912215885       13.4966404407
  S         4.1761164794        1.7533516289       37.4357375867
  C         4.5502754759       -1.2187118004       37.1818098209
  H         3.2945177581        0.1278165643       16.0257848705
  H         4.2195564360       -0.7346543876       17.1932134072
  C         2.0191353375       -0.8366006024       17.3371565901
  H        14.9413176025        1.0485491682       22.5810418044
  H        14.6266467747        1.8768478056       24.0776250707
  C        16.5498513991        2.1342925967       23.5384937199
  H        10.6454807360        9.5660648309       13.5372774961
  C        11.5591889109        8.3079509401       12.2311329440
  H         3.9749635268       -0.7833971162       38.0883326975
  H         4.0654605438       -2.2402628048       37.0544921091
  C         6.0297986832       -1.5564607681       37.4444284203
  H         1.4201124111       -0.6509878639       16.4538942999
  H         1.5737123479       -0.4949929492       18.2730431794
  C         2.3749889964       -2.2350966462       17.4792649750
  H        16.7539626590        3.0468095461       24.0119535375
  H        16.9777938065        1.2672394376       24.0644684055
  C        17.3753816179        2.0628901686       22.2676943872
  S        12.1921052430        6.8209026102       11.6348277660
  C        11.6851247346        9.3839060851       11.2506784268
  H         6.5329442715       -0.9471313229       38.1875362372
  H         5.9958401094       -2.5934264505       37.7582589509
  H         6.5781095001       -1.6699336043       36.5042691729
  H         3.4165193092       -2.3276868336       17.9646431064
  H         2.5043553410       -2.6426545455       16.5158839130
  H         1.6478243306       -2.7538607672       18.0732459061
  H        18.4175331441        2.0328971704       22.5879814664
  H        17.2067802899        2.8047905401       21.4810038027
  H        17.3242753318        1.0521354802       21.8597206717
  C        12.3617700472        7.6166974968       10.0887834937
  N        12.1362430186        8.9394894487       10.1121889699
  O        11.2937886780       10.5631963049       11.4793263690
  S        13.4176774086        6.9782084482        8.7597059797
  C        12.1876874737        9.8730185989        8.9908957009
  H        12.5642420648       10.8370208379        9.2991860780
  H        12.8244428255        9.5138286629        8.1592521862
  C        10.8390291173       10.0501259505        8.3808030887
  H        10.0355862605       10.0091383593        9.1349070343
  H        10.7446110718       10.9692672701        7.8404228164
  H        10.6286357665        9.2273734450        7.7253584005
  H        20.6481795684       11.8285188406        2.9988013494
  C        21.0453887071       10.8481036712        2.9856970031
  H        20.2856047249       10.1886004223        3.2138231140
  C        22.1152615127       10.7974559948        4.0576659118
  C        21.7839527299       10.6593303307        1.6300946315
  C        21.4871271126       10.9401659524        5.3990892123
  H        22.6281215237        9.8198793163        4.0225122792
  H        22.7424088333       11.6701404762        3.7594452646
  H        22.2586782986       11.6164415415        1.3955801821
  H        21.0930889973       10.5452996585        0.7600092577
  H        22.4097278146        9.8589490554        1.5798895167
  C        20.8355942936        9.6606378425        5.9911764067
  H        22.1912061813       11.4112497220        6.0442457132
  H        20.7123946011       11.6107596375        5.4124596813
  C        20.2594100534        9.9450519294        7.4523068061
  H        21.6688735824        8.8653959007        6.1472682257
  H        20.0724308079        9.2519657333        5.3454665587
  C        18.9920606666       10.8043888404        7.5008879538
  H        20.9847597075       10.3775947702        8.1918398265
  H        20.0954170707        9.0394605842        7.9575649725
  C        17.7327093886       10.0476965102        7.0756343788
  H        18.8475466387       11.4134666765        8.4423946731
  H        19.1086146151       11.6465385279        6.7787739147
  C        16.4796474070       11.0162808621        6.8870849596
  H        17.4168677455        9.3049311552        7.8308178993
  H        17.9196463585        9.5421208008        6.1466798843
  C        16.8699021485       12.3962505189        6.2128636283
  C        16.0579627856       11.6933783820        8.1366686053
  C        15.2139234591       10.3669402556        6.1612893124
  C        16.5462986027       13.4559300658        7.0313918790
  C        17.4196328547       12.7946089114        5.0061129993
  C        16.1562511281       13.0423951515        8.2687156990
  C        15.6656970843       11.0309898707        9.2863416680
  H        15.5454500514       10.0467266871        5.1371172905
  H        14.9002674005        9.5288093784        6.8296672615
  C        14.0384118843       11.4002008702        6.0186108472
  S        16.7936110303       14.9538038931        6.1908909160
  C        17.5502381903       14.1257899951        4.8583257490
  H        17.7104487841       11.8847797226        4.3856147203
  C        15.7810731252       13.6795621089        9.4089813781
  H        15.4676909261        9.9614906420        9.2261663466
  C        15.4138409034       11.6977125603       10.5077044790
  H        14.4456388019       12.2493835740        5.5224533583
  H        13.6930323380       11.8784130065        7.0033132424
  C        12.8476689974       10.9120443062        5.0930369280
  C        18.0904893272       14.7961445770        3.6157146301
  C        15.3999330968       13.0500928514       10.5864303262
  H        15.9518844863       14.7369697592        9.5422867871
  C        15.0524451799       11.3187889987       11.7871326158
  H        12.0068465037       11.6342864522        5.1587274524
  H        12.4182115899       10.0451196270        5.5002860496
  C        13.2267478184       10.7119140060        3.6162958798
  C        18.0222208407       16.1718045315        3.3533565583
  C        18.6419263042       13.9647000841        2.5367323462
  C        15.0635315223       13.7921061164       11.9049469255
  C        14.8147070914       12.4119429964       12.6277035430
  S        14.7914682202        9.8357575317       12.5455598967
  H        14.1115416188       10.0224558897        3.4756829542
  H        13.3740666672       11.6300648120        3.0812304755
  C        11.9648469143       10.2047683747        2.8194708217
  N        17.4536216522       17.1623015407        4.1697821787
  C        18.3715721342       16.7229044945        2.1518352959
  C        19.0590989429       14.4849419368        1.3075344679
  H        18.7663914053       12.8690753274        2.6630480747
  C        13.7156763962       14.4892290957       11.7519055558
  C        16.2159339591       14.7794142763       12.2695544301
  C        14.4762108351       12.0155998928       13.9097472146
  C        14.4787961910       10.6423883054       14.0577280868
  H        11.1727145133        9.7017705460        3.4234490921
  H        11.3586213802       11.1224421581        2.5765827978
  C        12.2166728560        9.2899813086        1.5937935195
  S        17.6655929039       18.6472986309        3.4782105652
  N        18.2674397902       18.1048394883        2.1130590619
  C        18.8635380387       15.9599688511        1.0797196189
  H        19.4604247508       13.8073155134        0.5654190002
  H        13.6370301907       15.2370173512       10.9643624314
  H        13.6022017566       15.2262847043       12.5551503129
  C        12.4931005095       13.5400187954       11.5682003906
  H        16.3478351048       15.5411584984       11.5146015354
  H        15.9309367010       15.4223855546       13.1303362377
  C        17.5832276620       14.0807010197       12.5757258189
  H        14.1639884193       12.7138455076       14.7344094097
  C        14.1439681584        9.9294377527       15.3166093651
  H        11.3969545276        8.6057122233        1.6351142617
  H        13.1991691558        8.8225879141        1.5359756233
  C        12.0988472758       10.1331999932        0.2737071296
  C        19.0035735643       16.5588727384       -0.2490001696
  H        12.6696605713       12.7246859374       10.8097153964
  H        12.2316139937       12.9409083599       12.4976292516
  C        11.3620811768       14.3900809378       11.0634225295
  H        18.0405697583       13.6499370269       11.6466628698
  H        17.4698458932       13.2215311817       13.2513728159
  C        18.5609241884       15.1649165326       13.1139512152
  C        14.0448161876        8.5480244852       15.4084140995
  C        13.9161621558       10.7161153804       16.5741614507
  H        11.9242703132        9.5791369408       -0.6430175535
  H        11.3244555379       10.8881101094        0.3001176644
  C        13.4151301974       10.8376644482       -0.0088387905
  H        18.6876658608       17.5970135735       -0.2440779661
  C        19.3047535743       16.1438344124       -1.5391979087
  H        11.6279131161       14.9740909679       10.0749753160
  H        11.0410353234       15.1427433868       11.7878341418
  C        10.1610430101       13.5099117202       10.7916828126
  H        18.7910873056       15.8930973718       12.3645917388
  H        18.0591091291       15.5861523744       13.9579240474
  C        19.8592361812       14.6014594738       13.7398979416
  N        14.3295308294        7.6150034552       14.3676459635
  C        13.6896160789        7.8417556338       16.5245959648
  C        13.4523966807       10.0257628488       17.6837435344
  H        14.0747077647       11.7870470487       16.6445667816
  H        14.0378181641       10.1487511793       -0.6130140802
  H        13.8808144865       11.0651298293        0.9460074346
  H        13.2958536542       11.7251681614       -0.6323380589
  S        19.6448702878       14.5401891048       -2.0400869775
  C        19.2661901950       17.1599997115       -2.6227853411
  H        10.4659947475       12.6045252849       10.3162442401
  H         9.6902557128       13.2529840701       11.6844539313
  C         9.0282050729       14.2972339945        9.9064266971
  H        20.1865510262       13.8240809315       12.9480076174
  H        19.5570502498       13.9289731412       14.5520221904
  C        20.9910697859       15.5967814336       13.8966752319
  S        14.2255738947        6.0700729490       14.8956280034
  N        13.7172214060        6.4570051739       16.4053235435
  C        13.3798809102        8.5522814934       17.7168241747
  H        13.3138859659       10.4811104929       18.6104287265
  C        19.7081916024       15.1861821348       -3.6561369597
  N        19.5586159372       16.5233465632       -3.7819012021
  O        18.9686062560       18.3584043894       -2.4802561152
  H         8.4438742664       14.9270334486       10.6109528805
  H         9.5634488069       14.9675902687        9.1448329992
  C         8.1259147045       13.4568656679        8.9220035829
  H        21.8837045509       15.0829498295       14.1276105463
  H        21.1761157564       16.2224263649       13.0278449464
  C        20.6784093273       16.4163093891       15.1641697969
  C        13.0963786024        7.8003714903       18.9024594012
  S        19.9171773726       14.3825343667       -5.1926017067
  C        19.5283100218       17.2537059628       -5.0306439718
  H         8.6434556873       13.4904471474        7.9691092748
  H         8.1597051813       12.3891615130        9.2047878166
  C         6.7808882499       14.1010065527        8.6731300376
  H        21.2494118123       15.9493918296       15.9210343939
  H        19.6113952332       16.3171376287       15.4054952797
  C        21.0772519272       17.8689665738       15.0143497931
  H        13.1380267850        6.8160968379       18.7828234751
  C        12.4361665424        8.1059837784       20.0440256003
  H        20.2309907065       16.9440961760       -5.7516121124
  H        19.8483334433       18.3244239134       -4.7863339151
  C        18.1801064986       17.2174545544       -5.6310251843
  H         6.3870990152       13.5543002716        7.8473844434
  H         6.9106432505       15.1398586810        8.4954649489
  C         5.7891628800       13.8884525963        9.7761018861
  H        20.2385734138       18.2984437147       14.4687360936
  H        21.1299702218       18.3067971064       16.0072475589
  C        22.3233921519       18.3073000406       14.2631063537
  S        11.8134540626        9.6308341925       20.4562479034
  C        12.3381728423        7.0389104580       21.1036635429
  H        18.1253620809       18.1465150628       -6.3218317466
  H        17.2785048621       17.1836476331       -4.9656936993
  H        18.1591300585       16.3983328283       -6.3680472441
  H         5.8581504249       14.4568572922       10.6788728706
  H         4.8105665686       14.1586707075        9.4212154676
  H         5.6285035388       12.8194821808       10.0562910546
  H        22.1894650400       18.2052560907       13.1958022536
  H        22.5769657546       19.3092282433       14.4023797788
  H        23.1732587983       17.7173056530       14.6372023890
  C        11.4682836075        8.8499686227       22.0598237042
  N        11.6967241026        7.5128271617       22.1454985249
  O        12.8478618668        5.8756331969       21.0216329211
  S        10.7957514506        9.7482264648       23.4881452924
  C        11.5093720813        6.7114993392       23.3807469648
  H        11.2305103306        5.7222282575       23.2090502575
  H        10.6749539920        7.1122778710       23.9805964338
  C        12.8202507433        6.6949687172       24.2282635777
  H        13.6424895806        7.0915019808       23.7127374578
  H        12.9965972976        5.7675566391       24.7442967870
  H        12.5263067739        7.4423778166       25.0235361738
