352
 i =    67400, time =    67400.000, E =        25.1923732062
  H        10.3855522141        4.6329145744       31.6960432891
  C        10.5388804109        5.6123519441       31.9909757908
  H         9.5493002926        5.8227109167       32.3957991551
  C        10.9928628105        6.4730617179       30.8136979765
  C        11.5024963163        5.7643872877       33.1744724998
  C        11.7940505270        5.7388651027       29.6817287093
  H        10.1432573980        6.8991081317       30.2824452845
  H        11.5563827055        7.3206951522       31.2151413378
  H        11.1806500163        5.1043216173       33.9755144546
  H        12.5390827311        5.5068359832       33.0328599763
  H        11.4174330497        6.8010712573       33.5548125644
  C        11.0275061771        4.9733462507       28.5767117188
  H        12.5030163475        5.0405872687       30.1491934285
  H        12.4692244475        6.4864831177       29.2302155986
  C        10.3502794704        5.8378530809       27.5320030115
  H        11.7750939003        4.4197948894       28.0904233196
  H        10.2381227801        4.2952189098       28.9482445967
  C         9.4562093622        5.0517084455       26.6853248462
  H        11.1060842416        6.4508371850       27.0456735451
  H         9.6742321326        6.4979390444       28.1043550444
  C         8.3865982717        5.8515111025       26.0274828000
  H        10.0876154605        4.8300121567       25.8124097113
  H         9.0726699566        4.0948316295       27.1992985290
  C         7.4129839944        4.9513143705       25.2231641353
  H         7.9530607035        6.4761378247       26.7310311078
  H         8.9074232041        6.4748543327       25.2507784141
  C         7.1047146692        3.5676404692       25.8755514078
  C         7.9316678132        4.2372340870       24.0517196614
  C         6.0750719466        5.5712990133       24.7606921999
  C         7.2848276142        2.4382505592       25.0894148814
  C         6.6036749940        3.2347926878       27.1825894068
  C         7.7549512204        2.8413363022       23.8696046591
  C         8.3368006862        4.9279159414       22.9053261202
  H         5.6693689487        4.8426715472       24.0551635232
  H         6.3488940134        6.5388146470       24.2790591275
  C         5.0836519582        6.0453963035       25.7447563430
  S         6.7498331211        0.9783708933       25.9197473906
  C         6.3463543982        1.8972673296       27.3499173754
  H         6.4681858290        3.9551021077       27.9193049030
  C         8.1369762308        2.3037560659       22.6923313348
  H         8.3768204025        6.0290422201       22.9624411507
  C         8.6495938093        4.3316219382       21.7310337963
  H         4.9254308603        5.2235983537       26.4136385573
  H         5.4108266678        6.8372653345       26.3543397724
  C         3.7705197963        6.2652592009       25.0074046988
  C         5.8182794104        1.2817103191       28.5978356569
  C         8.5026674621        3.0300784142       21.5453645238
  H         7.9392699823        1.2184318373       22.5511312736
  C         9.0299450351        4.7754571850       20.4616784908
  H         3.4644440752        5.4054453912       24.3005282483
  H         3.7983499134        7.0986258161       24.2379423758
  C         2.6413922805        6.4439644358       26.0265992469
  C         5.7965671096       -0.1147316234       28.8331866891
  C         5.5240216531        2.1626661267       29.7312609233
  C         8.9061058214        2.2879777066       20.3206618831
  C         9.2265970995        3.6638897274       19.6361074249
  S         9.3756499913        6.2421534574       19.7730676253
  H         1.7968461016        7.0474166704       25.7870493176
  H         2.9737322552        7.0289164383       26.8639939886
  C         2.0793576168        5.0984350598       26.5566346162
  N         5.9412805711       -1.1373599099       27.8825364804
  C         5.5323459919       -0.6205410753       30.1337131242
  C         5.2661383121        1.6328769452       31.0214143192
  H         5.4927070418        3.2624679181       29.5961282830
  C         7.6339462144        1.6649342388       19.5803947609
  C        10.2718057570        1.4188372076       20.3318581120
  C         9.6916477918        4.0701545390       18.3961983379
  C         9.7453445756        5.4644284544       18.2987115675
  H         1.5486017645        4.4896566597       25.8589901134
  H         2.8126531533        4.3326501771       26.6953489891
  C         1.3462863534        5.2838214062       27.9723082689
  S         6.0361688299       -2.6073135902       28.6321624319
  N         5.8600660410       -2.0353247510       30.1463640021
  C         5.1892173612        0.1598593769       31.2978884455
  H         4.8354203469        2.3504029154       31.7215167825
  H         7.2468851850        0.8284371441       20.1495784597
  H         7.9815797086        1.3628335136       18.5895204393
  C         6.5025350889        2.6891783067       19.3567421758
  H        10.4134899600        1.1617034995       19.3029469539
  H        10.0454415481        0.5332186353       20.9007609262
  C        11.3556343566        2.0630053902       21.0939390422
  H         9.8370739518        3.3243231585       17.6130102589
  C        10.1248089084        6.2217938367       17.0786266842
  H         0.8416940463        4.4202444539       28.2084026190
  H         0.5872886508        6.0424760087       27.7845206356
  C         2.3862987843        5.5628553463       29.0629290935
  C         5.0007123902       -0.4489293936       32.6086010588
  H         6.7768203783        3.2456909169       18.4981920463
  H         6.4647408406        3.3149990163       20.1938668229
  C         5.2165262406        1.9958629093       19.1553650882
  H        11.1265543747        2.3171704019       22.1018801402
  H        11.6769885175        3.0285056882       20.5748984364
  C        12.6294748718        1.1786441601       21.1559496459
  C        10.2775459162        7.6489946988       16.9689875012
  C        10.1711303282        5.4663211513       15.7755640579
  H         3.0720114311        4.7076896527       29.0227670949
  H         2.9761699165        6.5140953420       28.9195756118
  C         1.6936648887        5.4973442929       30.4577907489
  H         4.8513685452       -1.4839101810       32.6215095142
  C         4.8855005490        0.1243115598       33.8962303656
  H         4.4722990809        2.7908192683       19.2900677362
  H         5.0365466422        1.1694955568       19.8389251349
  C         4.9981659311        1.4840548122       17.7612580233
  H        12.5011055844        0.4540884897       21.9542503646
  H        12.6888796564        0.6646795625       20.2454360479
  C        13.7946998232        2.0986705669       21.4364569343
  N        10.2304522080        8.5333909374       18.0879869577
  C        10.6073376014        8.2781987629       15.8119621231
  C        10.5065990060        6.1345818545       14.6236641684
  H        10.0677260065        4.4086035859       15.6787508851
  H         0.9114955420        4.8008211894       30.4719061932
  H         2.3162769798        5.2379743384       31.3518565214
  H         1.3924794645        6.5238514486       30.7704868852
  S         4.8485363741        1.8017013848       34.3038670739
  C         4.7248649650       -0.8125370695       35.0187994338
  H         5.2732164353        2.2108845414       17.0639060510
  H         5.5989875228        0.6363426150       17.5913050405
  C         3.4242424101        1.1750907690       17.3649864046
  H        13.5821602278        2.7028773806       22.2927676806
  H        14.0654543403        2.6959342695       20.6129854251
  C        15.0405937608        1.3509401326       21.8163773907
  S        10.4520778470       10.0595804375       17.5960250133
  N        10.7087874390        9.6708695569       16.0099526794
  C        10.7471484488        7.5882517962       14.5704314716
  H        10.4095077929        5.5878778018       13.6498528234
  C         4.5369151951        1.2121279143       35.9374846029
  N         4.4458481706       -0.1170888502       36.1057769877
  O         4.7824280148       -2.0213117071       34.8563507546
  H         3.3796516004        0.9130605185       16.3087780224
  H         2.7828436448        2.0753317341       17.3702573485
  C         2.7300878993        0.2046043340       18.2955731764
  H        14.7583502689        0.5915726482       22.5645854255
  H        15.3371695190        0.6652028928       21.0528850603
  C        16.2187943247        2.2328089717       22.3306905486
  C        11.0720135432        8.3301672767       13.4970751689
  S         4.3335918152        2.1861869148       37.3908986668
  C         4.3480531715       -0.8240327491       37.4026285004
  H         3.0272216423        0.3236097416       19.3728507131
  H         1.6566748872        0.4452152931       18.3401057652
  C         2.7752679120       -1.2918713056       17.8123258172
  H        15.9154680764        2.9283816019       23.0552249309
  H        16.5217164250        2.8855378868       21.5480236715
  C        17.1795382931        1.2397538300       22.9392037838
  H        10.9032869765        9.3656937981       13.7277454614
  C        11.7006869510        8.1602690393       12.2582192819
  H         3.5549549366       -0.3999534962       37.9713657389
  H         4.1310968497       -1.8637411940       37.1487310713
  C         5.6366061328       -0.7440472138       38.2489070699
  H         2.5491085284       -1.9501150206       18.5721028714
  H         3.8184485613       -1.4757056962       17.6858525591
  C         1.9610178425       -1.4437888184       16.5173287596
  H        16.7751610214        0.7902126490       23.7895844768
  H        17.3113358284        0.4724656089       22.1452869742
  C        18.5494462835        1.8302754923       23.1990132728
  S        12.1955090904        6.7110195883       11.5918092853
  C        11.8265019125        9.3348702622       11.3067548527
  H         6.2559020615       -1.6283884158       38.3066748447
  H         6.3238986295        0.0506622695       37.9548458095
  H         5.3539845737       -0.5129618426       39.2915577220
  H         0.9294265078       -1.0965282902       16.7515937094
  H         1.8894150931       -2.4935736406       16.2813245454
  H         2.4124983158       -0.9476345218       15.7280370790
  H        18.6717605053        2.5736454213       24.0229218787
  H        19.0063349206        2.2502112647       22.3302276073
  H        19.1692652074        0.9966310692       23.4925372284
  C        12.5767102803        7.6392681549       10.1375293720
  N        12.4760120881        8.9121563100       10.2164878697
  O        11.5298647022       10.5108994446       11.6316157315
  S        12.9669018883        6.8303397792        8.6055399956
  C        12.7469378972        9.8360619886        9.1195304860
  H        12.9786195338       10.8500709874        9.5338966959
  H        13.6595059281        9.5834581369        8.5427560555
  C        11.5844997452        9.9603188889        8.1778798032
  H        11.9036525645        9.6031398074        7.1640811523
  H        10.7566240843        9.3475593592        8.5511173270
  H        11.1955792965       10.9114711252        8.0899166137
  H        22.5345829365        9.0150955833        3.3689846294
  C        22.6024123138       10.0296828580        3.1948888905
  H        23.4216349481       10.1016543842        2.5384311037
  C        22.9841325312       10.8181764478        4.5617563844
  C        21.3556367302       10.4171201336        2.4529464877
  C        21.8379601148       10.8675541709        5.5611607239
  H        23.7393548853       10.2112229038        5.0513591841
  H        23.4200869792       11.8332346254        4.5161116854
  H        21.3390828942       11.5218750621        2.3746004063
  H        20.5334579899       10.1152851609        3.1009613867
  H        21.2650799743        9.9183945206        1.4483380787
  C        21.3402174031        9.5031879124        5.9329586664
  H        22.0965758611       11.6071372621        6.3600336120
  H        21.0721214678       11.4658202572        5.2107063443
  C        20.6200950499        9.4627006984        7.2653931340
  H        22.2476203184        8.8844612963        6.0551500679
  H        20.6865884674        9.0796863370        5.2027037753
  C        19.3563370874       10.2530697192        7.4303459560
  H        21.3256318080        9.7819701480        8.0388838679
  H        20.4531944863        8.4548510865        7.6309053809
  C        18.0374778498        9.7677241786        6.7736380197
  H        19.2038247121       10.3450089487        8.4848882109
  H        19.7085711025       11.2338607710        7.0712739035
  C        16.9548274313       10.8394269215        6.6405404910
  H        17.6611186103        8.8082668567        7.1543751562
  H        18.2901126872        9.4713666090        5.7278735328
  C        17.5842762295       12.1552249374        6.0159759704
  C        16.6742155981       11.6088889126        7.8584006687
  C        15.6835871044       10.3142201033        5.9893082597
  C        17.4641009483       13.2545316253        6.8623051452
  C        18.1398622837       12.5124018277        4.8136769977
  C        16.8230259875       12.9447283779        7.9825598004
  C        16.0860686936       10.9197739260        8.8802503577
  H        15.9165957782        9.8262263078        5.0950882232
  H        15.3579671272        9.5204629936        6.7016710235
  C        14.5808506208       11.4312792383        5.8997584772
  S        18.0040015382       14.7295778246        6.1756129311
  C        18.3592059517       13.8690569862        4.7107383435
  H        18.2577507529       11.8407237036        4.0529460153
  C        16.4780253298       13.5541261820        9.1152212084
  H        16.0773121503        9.8649716055        8.8218502404
  C        15.7625805543       11.5636105136       10.0513783125
  H        14.9164175192       12.3960043900        5.6124436981
  H        14.0707630649       11.4549388828        6.8593119890
  C        13.5430945408       10.8688834362        4.9222197587
  C        18.6929619895       14.5399568274        3.4484101868
  C        15.8778806558       12.9163841104       10.1945265208
  H        16.7382626395       14.5888191278        9.2103296875
  C        15.3913395847       11.0719094238       11.2808008515
  H        12.6193297503       11.4009193134        5.2971559761
  H        13.4205317446        9.7786455939        4.9969349824
  C        13.7220737022       11.2335760904        3.4338973281
  C        18.6187701796       15.9101825614        3.1456463964
  C        19.0866586458       13.7014847389        2.3062318007
  C        15.5895100211       13.5452107944       11.4665798568
  C        15.2653175360       12.1373185973       12.1515804386
  S        15.1337979353        9.5947564754       12.0169516159
  H        14.8303751640       11.1781248389        3.1175973217
  H        13.6565888369       12.2574429702        3.1947644518
  C        12.7719900124       10.5059871250        2.5651314500
  N        18.3346774505       16.9153092516        4.1052073607
  C        18.8695335840       16.4441014919        1.9207950983
  C        19.3209325311       14.2478795760        1.0483845549
  H        19.1513927842       12.6108548437        2.3903967892
  C        14.2697677272       14.4714523182       11.3845636675
  C        16.8767682449       14.3525159189       12.0365509314
  C        14.9568020976       11.7420358950       13.4626751092
  C        14.8571708717       10.3882780222       13.5508639839
  H        12.1252177867        9.9612604605        3.2715300121
  H        12.2424446420       11.2445374750        2.0148608667
  C        13.4406520413        9.6084920346        1.5177194645
  S        18.3076414426       18.2896777815        3.3381361977
  N        18.6137930118       17.7689698877        1.8091820132
  C        19.2007151048       15.6767068921        0.7888700506
  H        19.6167152091       13.5310919817        0.2054530960
  H        14.4662372631       15.2607633641       10.7235341187
  H        14.0488549544       15.0741915866       12.3077584600
  C        13.0340733789       13.6584246453       11.0444312512
  H        17.0909791465       15.2859021934       11.5854913866
  H        16.5020977361       14.7217213031       12.9702563214
  C        18.0343259695       13.4627414977       12.3208039232
  H        14.8968849691       12.4921604839       14.2686593605
  C        14.4589264016        9.5559495197       14.7574064460
  H        12.7296797566        8.8028372926        1.2512161241
  H        14.2862369833        9.0536308299        1.9178170558
  C        13.7923253889       10.5492678627        0.2841030463
  C        19.4822432105       16.3049720798       -0.4716066773
  H        13.1837382219       13.1685656212       10.0538388554
  H        12.8444420672       12.9142134190       11.7831362935
  C        11.7799105256       14.4841310034       10.8706904573
  H        18.3764169433       13.1053062545       11.3613134960
  H        17.6927444939       12.5836442256       12.7779431302
  C        19.1430316744       14.1285958863       13.0990837970
  C        14.2499870980        8.1730155828       14.7535548358
  C        14.2656936411       10.3063126371       16.0116783239
  H        14.0506380018       11.5618195789        0.6156392080
  H        14.7186623217       10.3243724787       -0.2421159787
  C        12.5758707624       10.7880248589       -0.7273012560
  H        19.3105246571       17.3615776548       -0.4765441615
  C        19.7240150949       15.8241206376       -1.7161797066
  H        11.9443757109       15.2627460433       10.0888834247
  H        11.6961777223       14.8978860824       11.8339933649
  C        10.5809893012       13.6491808429       10.5605860687
  H        19.4791289008       15.0360253043       12.6198518682
  H        18.7483578866       14.3368682950       14.1239446904
  C        20.3381177315       13.1739256073       13.2076062509
  N        14.6611534843        7.2243748169       13.7574171837
  C        13.9315983276        7.5105812932       15.9386248121
  C        13.8340934492        9.6588234462       17.1667859899
  H        14.2662440523       11.3328464736       15.9502490641
  H        12.7272612444       11.4050433352       -1.6228294096
  H        11.7004830900       11.2125225202       -0.2702175742
  H        12.1701492065        9.8309801016       -1.0853382062
  S        20.0773729050       14.1555714597       -2.1516639022
  C        19.9398021242       16.7061066025       -2.8671673098
  H        11.0325253964       12.9566233518        9.7901836600
  H        10.1505371929       13.0350302909       11.3338954839
  C         9.5717491588       14.4016148508        9.8009243761
  H        20.6636606840       12.8444589213       12.1487342242
  H        19.9773938778       12.2400302990       13.6296303696
  C        21.4974055441       13.6285783761       14.1018765082
  S        14.4701450995        5.7095607245       14.3481195731
  N        13.9043597086        6.1404242978       15.7880942466
  C        13.7561818994        8.1735660409       17.1704684467
  H        13.8295322681       10.2826671084       18.1187319930
  C        20.2435706444       14.7204991085       -3.8391240185
  N        20.2347205058       16.0593473922       -3.9585849901
  O        19.9778247341       17.9312217163       -2.7784467665
  H         9.0625519758       14.9660910255       10.5667710319
  H        10.0403571443       15.1624892681        9.1198781579
  C         8.6368845061       13.3884906072        9.2168800144
  H        21.0500774533       13.9462004582       15.0487172230
  H        22.1386456963       12.7291738389       14.2001793341
  C        22.2973688794       14.9242542563       13.5992572606
  C        13.4791390897        7.3468181037       18.3362989128
  S        20.6881606707       13.8110562071       -5.2637831232
  C        20.2519867186       16.7159489223       -5.2707847417
  H         9.1535231935       12.7646636425        8.4907629670
  H         8.0916829005       12.7789885903        9.9633759559
  C         7.4630855858       14.0799647115        8.5411943297
  H        21.6061189428       15.6665241081       13.1891171583
  H        23.1360739005       14.7105421035       12.9504058006
  C        22.9114896305       15.7944414440       14.7994684805
  H        13.5073548741        6.3279591926       18.0862000328
  C        13.0122985046        7.5457210673       19.6069632157
  H        20.9172656021       16.2953476640       -6.0096500759
  H        20.8084706106       17.6914259233       -5.2583447155
  C        18.8211226509       16.8250647434       -5.9664788832
  H         7.0249123921       13.3068644914        7.8464799695
  H         7.9799294159       14.6754495094        7.7710458525
  C         6.2946808598       14.6692683671        9.4326955410
  H        22.7022775351       15.2311747236       15.6758432059
  H        23.9902841323       15.8985551174       14.6020840323
  C        22.2904993995       17.1770780456       14.9528049965
  S        12.7169065664        9.1291116782       20.3211269241
  C        12.8448909128        6.3898152723       20.4984199619
  H        18.8581312872       16.1150570093       -6.8220983390
  H        18.6493179028       17.7535639177       -6.4221932948
  H        18.0053347747       16.3952980166       -5.3938283611
  H         5.9126843729       13.8419146221       10.0532595510
  H         6.7023387508       15.5691730348        9.9603994977
  H         5.5273510904       15.0171054108        8.7233703395
  H        21.2536217628       17.0259178673       15.2048417443
  H        22.8616630685       17.7658302306       15.6632784423
  H        22.2106170676       17.7838830880       14.0442310067
  C        12.4352965491        8.2604024238       21.7201863786
  N        12.3828048075        6.8910898251       21.6366486801
  O        12.8536506386        5.2407532008       20.1086263715
  S        11.6885436114        8.8957742432       23.2086881651
  C        12.0680357480        6.0223268116       22.8182545323
  H        11.9075033480        4.9359610346       22.5291815817
  H        11.1218074767        6.3272553322       23.2883675362
  C        13.2751415735        5.8114669241       23.7685856277
  H        13.3183737699        6.4294355238       24.6861284175
  H        14.1444084017        5.9956699491       23.1473723385
  H        13.3003169990        4.7418169273       24.0352814975
