352
 i =    71400, time =    71400.000, E =        24.9127562998
  H        12.2916714846        5.4039221619       32.7971182900
  C        11.3428732581        5.7674786478       32.5548428748
  H        10.7411291139        4.8128448836       32.4342280644
  C        11.1809753366        6.5548550736       31.3243678925
  C        10.7420704295        6.6078546080       33.7304500905
  C        11.4863244559        5.7881561210       30.0685112652
  H        10.1071852450        6.7981025294       31.2622494372
  H        11.6982299596        7.5152752129       31.3394699647
  H        11.0682307133        7.5959866893       33.7012119708
  H         9.6912140965        6.4889982755       33.9076531300
  H        11.1944420725        6.2993405594       34.6566264794
  C        10.4364312575        5.9935045504       28.9522461841
  H        11.4973086272        4.6921592624       30.2258355674
  H        12.4471234247        6.1177757589       29.6763831233
  C        10.9315731984        5.8110539718       27.5150025815
  H         9.4797265800        5.3660097441       29.0418700984
  H        10.0246678616        7.0217439905       28.9535446570
  C         9.8605769837        5.2103869719       26.5600634242
  H        11.9210454698        5.2487214124       27.6078516069
  H        11.2210163656        6.7081644139       27.0391107383
  C         8.5267677692        5.9827442503       26.3048081295
  H        10.2171056883        5.0737157407       25.5342530887
  H         9.7342933564        4.2015353382       26.8404053509
  C         7.4150537317        5.2187864374       25.5173818511
  H         8.1943665888        6.2843872382       27.2993526266
  H         8.8268029886        6.8748136928       25.7698325167
  C         7.0325387035        3.9042920478       26.1322107732
  C         7.9421725317        4.4772734350       24.3210458804
  C         6.1975536241        6.0054700764       25.1777682357
  C         7.3270945707        2.8204916351       25.3460170910
  C         6.5329646556        3.4898002368       27.3586921173
  C         7.9119055440        3.1873513133       24.1731185359
  C         8.4093020654        5.2144880919       23.2378693159
  H         6.1910417796        6.3322845111       24.1858571168
  H         6.3504289796        6.8278403697       25.8524097438
  C         4.8889342305        5.3444167243       25.5674390485
  S         6.9290757252        1.3567197792       26.0353128543
  C         6.4238429419        2.1263340689       27.5135542752
  H         6.1858111405        4.2801911337       27.9912098427
  C         8.3910468877        2.6072686409       23.0222739535
  H         8.3466917736        6.3252570511       23.2905916690
  C         8.8268291161        4.6736083979       22.0829097854
  H         4.7679582532        4.2953932941       25.2816323348
  H         4.7787386053        5.2747798833       26.6475019116
  C         3.6974934051        5.9905096790       24.9024192386
  C         6.0406702594        1.4254618413       28.7457858131
  C         8.7295289477        3.3503611005       21.8823307685
  H         8.3648562226        1.5631052250       22.9844241621
  C         9.2523326596        5.0693321459       20.8512109501
  H         3.1592813102        5.2965580102       24.2265833113
  H         4.0131518295        6.8726647396       24.2582127194
  C         2.6143522923        6.3005946572       25.9824320537
  C         6.1746934863        0.0778346491       29.0386616737
  C         5.5024551545        2.2421612011       29.8450506142
  C         9.2357573450        2.5942761280       20.6678967345
  C         9.4898629465        3.9713534947       20.0158663767
  S         9.3736279174        6.5361286119       20.0019808143
  H         1.8456980102        7.0007183303       25.6284094791
  H         3.0252397434        6.8156779497       26.8661129896
  C         1.9614707825        5.0863123085       26.6897173458
  N         6.6381172580       -0.8504693314       28.1352486180
  C         5.6823411075       -0.4505232403       30.2070211233
  C         5.1262814811        1.7286727883       31.0738583821
  H         5.4344471212        3.3514840272       29.8116907839
  C         8.1723291646        1.8163592561       19.8395899843
  C        10.5748366658        1.8007425107       20.9072009443
  C         9.8394094120        4.3705942757       18.6898963687
  C         9.7862712645        5.7435962843       18.5352591159
  H         1.1316090463        4.7304669192       26.0927735049
  H         2.6651172983        4.2877161002       26.9730769688
  C         1.3362621572        5.5315938088       28.0314592904
  S         6.3824353210       -2.3557915429       28.7444715745
  N         5.7080627919       -1.8977022758       30.1647976109
  C         5.3127605533        0.3074637852       31.3110929178
  H         4.7172353291        2.4600942409       31.7265943618
  H         7.9126413902        0.9782298165       20.4119070232
  H         8.6509262950        1.5080342953       18.8463341925
  C         6.9282618744        2.5879351869       19.5045679046
  H        11.0066710484        1.3541440666       20.0370647848
  H        10.4157986743        1.0403904906       21.6606441350
  C        11.5394250543        2.7607612575       21.5405994690
  H         9.8043089272        3.5730760099       17.9439126883
  C         9.9710343047        6.4916276639       17.3104275151
  H         0.4458121280        4.8767350613       28.2006320224
  H         0.8630759306        6.5369354288       27.8661136264
  C         2.2887474646        5.4839523605       29.1686144252
  C         5.1145016451       -0.2527639327       32.5965979949
  H         7.0459054392        3.0981266450       18.5941111815
  H         6.6908255556        3.3180530135       20.3301256438
  C         5.5894274350        1.8875777841       19.3987770051
  H        11.2252822773        3.2874780683       22.4908799957
  H        11.8470939599        3.5038236661       20.8198150891
  C        12.7349280870        2.0166320685       21.8567185435
  C        10.1442566305        7.9094323012       17.2274893656
  C        10.0652844867        5.7713284757       16.0072024571
  H         2.8831670587        4.5500693691       29.1644848297
  H         3.0986462534        6.2265095187       29.0081393918
  C         1.6963841642        5.7600728885       30.6146007334
  H         5.3548811644       -1.3286463630       32.6198221879
  C         4.8248012356        0.2416605952       33.8210662515
  H         4.8034837662        2.6702895191       19.4080032425
  H         5.4316278514        1.2792635356       20.3664206764
  C         5.5664540274        0.8478866798       18.1841302811
  H        12.5115292570        1.1927781656       22.5192382698
  H        13.1702347673        1.5298786918       20.9107360311
  C        13.8711768546        2.8840649051       22.4689099797
  N         9.9644873843        8.8047021542       18.2855204532
  C        10.4017835468        8.5364308716       15.9898624948
  C        10.3260796621        6.3682357627       14.7502417937
  H         9.9875303985        4.6983770697       15.9827598379
  H         1.3402869880        4.8341997880       30.9572929912
  H         2.4272131050        6.0907892387       31.4661428783
  H         0.8808195818        6.5395122514       30.5022168450
  S         4.5752338460        1.9054454193       34.2384643480
  C         4.7540906835       -0.7727126573       34.8677666996
  H         6.4201193968        0.9297690350       17.4665452602
  H         5.6076741480       -0.1047217816       18.5089044498
  C         4.1824740644        0.9466030870       17.4352151230
  H        13.5198686306        3.1751690536       23.4691723967
  H        13.9345797719        3.7495855101       21.8580405574
  C        15.1315317127        2.0105967300       22.4931327580
  S        10.0715056151       10.3224228302       17.6572763173
  N        10.4983409383        9.9443472070       16.1391219950
  C        10.4994204106        7.8661742114       14.7979841458
  H        10.4920683329        5.6684592349       13.9581846050
  C         4.1763324054        1.1732633542       35.8195559732
  N         4.3167498863       -0.1602766513       35.9687093694
  O         5.0254152019       -1.9707907369       34.7445168260
  H         4.2770623686        0.6616962916       16.3797834240
  H         3.9836510252        1.9832893952       17.5238673551
  C         3.1830916024        0.1797270465       18.3343344403
  H        14.9842754222        1.1443937848       23.0542389308
  H        15.4266500045        1.6251891137       21.5051197636
  C        16.2295405523        2.8619242814       23.0596360306
  C        10.8442757077        8.6795856801       13.6626281933
  S         3.7643484651        2.2328166320       37.2313089471
  C         4.2417771554       -0.7971710792       37.2352092524
  H         3.3556160995        0.2801679911       19.3994967792
  H         2.2422652825        0.6097508974       18.1827043313
  C         3.0706681191       -1.1834952326       18.0507491262
  H        15.7746852932        3.4450469757       23.8950486843
  H        16.5966975144        3.6197190198       22.3263445797
  C        17.4553055186        2.0794911165       23.6536100843
  H        10.7814111596        9.7651801107       13.7960769598
  C        11.3910257286        8.3649687500       12.4103704771
  H         3.4626910385       -0.3780990752       37.7819537505
  H         4.0446671383       -1.8462883591       37.1718890278
  C         5.5776452476       -0.6321560076       37.8762839001
  H         2.4429409803       -1.5905518200       18.9288302911
  H         4.0737708316       -1.7184031100       18.0427686503
  C         2.2793973116       -1.4637950914       16.7458855895
  H        17.7797980500        2.7000161942       24.5409650936
  H        17.2389265431        1.0180348954       23.9219713930
  C        18.4883461750        2.0726981357       22.5711036516
  S        12.0100114232        6.9615549737       11.7311329131
  C        11.5796187235        9.5419533796       11.5212872343
  H         5.5972153649       -1.4369966804       38.5957369384
  H         6.4241014150       -0.6874167621       37.2409964134
  H         5.6611492666        0.3163130811       38.3395799339
  H         1.2702183932       -1.1468755072       16.9808378164
  H         2.3096116564       -2.4985464529       16.4439297274
  H         2.4857302262       -0.7960085572       15.8995147387
  H        18.9322709295        3.0530784059       22.4313144581
  H        18.0740824112        1.6843279437       21.5577134479
  H        19.3402861912        1.4502582603       22.9238535539
  C        12.2803641789        7.8408333309       10.2027228374
  N        12.1262498135        9.2008076488       10.3414182593
  O        11.3360987446       10.7592385377       11.8499686301
  S        12.7887186153        7.1899908680        8.6511951240
  C        12.3704349664       10.1118121401        9.2118342426
  H        12.8080434955       11.1040438556        9.5850951211
  H        13.1457664058        9.6541643789        8.6897662869
  C        11.1664435142       10.1568131237        8.1773335787
  H        10.2668682576        9.5736027511        8.4882993291
  H        10.7793927960       11.0683648417        8.1409265339
  H        11.5022381556        9.8082184055        7.1655435418
  H        21.3950340518       10.8990455397        2.2644293500
  C        22.1969042266       10.2124265138        2.4457047981
  H        21.8404723530        9.1759856104        2.3067597109
  C        22.8935331781       10.4407371056        3.8430481847
  C        23.1482283103       10.4571379810        1.2995760721
  C        21.8826419526       10.6190946314        4.9220312566
  H        23.6286716389        9.6236044552        4.0853522064
  H        23.4976541983       11.3346400780        3.6227220974
  H        23.9520268456       11.2679604528        1.4621436633
  H        22.5614041331       10.8494187586        0.5525525083
  H        23.6948339433        9.5602343164        0.9891105592
  C        21.2146623061        9.2940548237        5.4287206300
  H        22.3452101796       11.1441111177        5.7790387826
  H        21.0982914638       11.2823794391        4.5013996230
  C        20.4494771605        9.5479180466        6.7272125840
  H        21.9689852593        8.5673857714        5.6026506767
  H        20.6863694979        9.0270370827        4.5794503877
  C        18.9581380661        9.4127523642        6.3567915940
  H        20.6339984921       10.6132563331        7.0221203306
  H        20.7851833640        8.8142903707        7.4040248262
  C        18.0972017915        9.9402202038        7.4980519970
  H        18.6813494039        9.9442208479        5.4707689673
  H        18.9015507819        8.3220957416        6.3236247261
  C        16.9476446208       10.8620970097        7.0346287272
  H        18.7256648748       10.5781875146        8.0528060378
  H        17.7878882405        9.1578607680        8.2302248406
  C        17.3891946282       12.1888854725        6.3562793499
  C        16.4538149426       11.6519939864        8.2195079031
  C        15.7880845610       10.1552761431        6.3211124274
  C        17.1971779340       13.2498046405        7.1810908741
  C        17.8967928995       12.4909978315        5.0851212249
  C        16.6264010261       12.9778868171        8.3657941653
  C        15.8715252880       11.0484529578        9.3509285827
  H        16.1557182646        9.6314116693        5.4509625303
  H        15.4260647472        9.4636943226        7.0232357760
  C        14.6709626491       11.1681835288        6.0351243315
  S        17.8488299089       14.7165023749        6.4400211455
  C        18.2006875639       13.8012887475        4.9680034299
  H        18.1254404548       11.7104769843        4.3306643618
  C        16.2987213550       13.6574507701        9.4729757429
  H        15.7181842458       10.0507504040        9.2384270733
  C        15.6508333789       11.7792473321       10.5188227318
  H        14.9569957977       12.1324388649        5.7232047878
  H        14.1364768236       11.4014961753        6.9967856556
  C        13.6071004765       10.5535456989        5.1133900582
  C        18.6659207520       14.4097741968        3.6705809160
  C        15.7767868604       13.0895009427       10.6038907861
  H        16.4967269204       14.7386094984        9.4333611547
  C        15.1792360635       11.3474615731       11.7153868553
  H        12.6108009988       11.0206400640        5.1994582025
  H        13.4230152591        9.5930524441        5.6235493854
  C        14.0188452908       10.3973230505        3.6241932851
  C        18.6921573742       15.7913743923        3.4377017258
  C        19.0943694294       13.5230528082        2.5576147338
  C        15.3708513748       13.7853517644       11.8502815121
  C        14.9893463392       12.4694980470       12.5136883439
  S        14.7461985133        9.8603878683       12.4625417518
  H        14.7986960025        9.5908190653        3.5810812851
  H        14.5109563473       11.2369837800        3.2454986309
  C        12.7866896376        9.9885931561        2.8311721635
  N        18.4318139031       16.8100998266        4.4389431001
  C        18.9039383395       16.3613498663        2.2148041737
  C        19.2755025579       14.0802563967        1.2891921206
  H        19.0204160894       12.4977614102        2.7071286533
  C        14.0585901394       14.5893069125       11.6569593589
  C        16.4314752777       14.5318203129       12.6848140021
  C        14.7894043769       12.0804165825       13.8767220535
  C        14.5006326013       10.7410701801       13.9933601047
  H        12.4615178997        9.1607614576        3.4170459838
  H        12.0735418958       10.7373800594        2.9441532550
  C        13.0927370087        9.5642123533        1.4256525951
  S        18.3507685836       18.2480143991        3.7650003418
  N        18.5410930979       17.7069233713        2.2187278080
  C        19.1202593707       15.5612026023        1.0515991285
  H        19.6462828306       13.4228015932        0.5235715634
  H        14.1233537613       15.3692440450       10.9003006390
  H        13.8685229350       14.9920031303       12.6485479843
  C        12.7897887253       13.7917069423       11.1802439894
  H        16.7698634084       15.4018625426       12.0518809229
  H        15.9747200603       14.9371745634       13.6452554611
  C        17.6811378881       13.6730748883       13.0918484364
  H        14.7736383919       12.8416110496       14.5980554895
  C        14.1400636918       10.0461820025       15.2585625635
  H        12.1523384707        9.2243644959        0.9892899170
  H        13.7575915438        8.6912703463        1.5695299347
  C        13.8103850764       10.6485524962        0.5941680779
  C        19.2731151490       16.2511671299       -0.1978885180
  H        13.0879390405       13.0842878097       10.4386494908
  H        12.4610358294       13.1047684436       11.9871546295
  C        11.6644122514       14.6679832586       10.7685429910
  H        18.1236501445       13.3876445208       12.1888725113
  H        17.2667701429       12.8648373119       13.7355439166
  C        18.7493074835       14.3889713681       13.9397125972
  C        13.9800948346        8.6584001087       15.4535729874
  C        14.0210391847       10.9439547910       16.4322152596
  H        13.7489121238       11.6166192375        1.1408870504
  H        14.8268099563       10.3587180118        0.4291755877
  C        13.3276939065       10.7910917194       -0.8045506110
  H        19.1592174193       17.3443378477       -0.2598108846
  C        19.4179696168       15.8044406902       -1.4944058060
  H        11.8911274780       15.3539704376        9.8782168010
  H        11.3716756626       15.2747996980       11.6359865160
  C        10.5233940736       13.6760700487       10.3832469320
  H        18.4133992149       15.4153319443       14.0342670124
  H        18.6516391374       13.9372480680       14.9262420219
  C        20.2227300760       14.2374349312       13.5531446725
  N        14.1596013746        7.6909182113       14.4424504375
  C        13.7265856404        8.0689641382       16.6903715715
  C        13.7173094735       10.3570234522       17.7232249324
  H        14.0402868897       12.0264712354       16.3639699224
  H        13.7023386128       11.6799344225       -1.2864856870
  H        12.2030124410       10.7840016205       -0.8258571182
  H        13.7613342428        9.9178351987       -1.3503735505
  S        19.7040493655       14.1740809990       -2.0292966449
  C        19.5629345626       16.8611316957       -2.5533659748
  H        10.9808945132       12.7223038497       10.0286498813
  H         9.9513461319       13.5906249476       11.3527365340
  C         9.5366623644       14.3007016287        9.4303021014
  H        20.1953346117       14.4026535037       12.4805636709
  H        20.5627159292       13.2361971220       13.6846179271
  C        21.1184683589       15.3240148175       14.2182527751
  S        13.8677225151        6.2604920232       15.1148298209
  N        13.4001475774        6.6854898862       16.6205614608
  C        13.5243126796        8.8926536210       17.8348509368
  H        13.6393726843       10.9654237122       18.6193828130
  C        20.0432488002       14.9429985070       -3.6175771155
  N        19.9832833330       16.2721056416       -3.6252470821
  O        19.4760918937       18.0593283021       -2.4674854249
  H         9.1028258571       15.2427063546        9.8683680324
  H         9.9632810911       14.6105660779        8.5174471363
  C         8.3276905276       13.3892073402        9.1411011935
  H        20.8152676340       15.5932489762       15.3010963709
  H        22.1776161207       15.1016659300       14.2985331790
  C        21.2847234407       16.5485288930       13.3643133733
  C        13.3058477503        8.1461589248       18.9920915094
  S        20.7131874004       14.1154926396       -5.0414478358
  C        20.1194944004       17.1047984841       -4.8815838277
  H         8.6092426510       12.8493414183        8.2417022493
  H         8.2620679497       12.6184310846        9.9211285601
  C         6.8849096785       14.0319572126        8.9462137130
  H        20.3840644843       17.0780668062       13.0221492204
  H        21.9126608304       16.3829634059       12.4137083262
  C        22.1680512807       17.6555785043       13.9722392058
  H        13.5680242303        7.1320524755       18.9343059940
  C        12.6823120538        8.3861993057       20.2188138007
  H        20.8351977459       16.6494686722       -5.5552620406
  H        20.5628854220       18.0597213125       -4.6338173408
  C        18.7197991985       17.2506537462       -5.5768158999
  H         6.2212542319       13.3556470718        8.3017900081
  H         6.9586693308       14.9487891944        8.4141034637
  C         6.1684703070       14.3221522777       10.2408768870
  H        23.0138962900       17.2694284156       14.4664006953
  H        22.7113386541       18.2602424736       13.2209911557
  C        21.4372951111       18.5237486592       15.0387536414
  S        11.9676996355        9.8778674850       20.7111535305
  C        12.6842056620        7.3027168943       21.2706374536
  H        18.0942904830       18.0276954280       -5.0551900011
  H        18.0879430731       16.4274639507       -5.5142880933
  H        18.7357930317       17.5255714771       -6.5917426800
  H         6.1851422743       13.4116571609       10.8052827072
  H         6.7273156163       15.0722571917       10.8515690619
  H         5.0908330078       14.7418888917       10.2316890638
  H        20.7197045555       19.1767571988       14.6103122243
  H        20.9350119042       17.8922214505       15.8273232034
  H        22.2226551862       19.0734441068       15.4717906647
  C        11.5903803495        9.0961377799       22.2225479241
  N        11.9371738866        7.7701217900       22.2957786331
  O        13.1763412968        6.1629244547       21.0789901745
  S        10.5232364820        9.7026244176       23.4954915208
  C        11.6673420732        7.0152715273       23.5258775552
  H        11.7756187587        5.9885910925       23.2887243215
  H        10.5940630498        7.1251165488       23.8824986960
  C        12.6982204834        7.3592163864       24.5168707204
  H        13.7222604272        7.4388270639       24.0970038186
  H        12.7633411291        6.7244164302       25.3986846302
  H        12.4116141134        8.2529762129       24.9488671170
