352
 i =    91200, time =    91200.000, E =        25.0498408578
  H        10.4288204013        7.1965531965       31.3399955198
  C        11.3046486196        6.8038959608       31.7415257656
  H        11.9069073913        7.6411594305       32.0155476826
  C        12.0242809669        5.8921659547       30.7422487778
  C        10.7542578598        6.1626570988       32.9549220558
  C        11.0874851697        4.8524311955       30.0532823564
  H        12.3981813959        6.5492093625       29.9603882075
  H        12.9090413666        5.4106744734       31.1930716730
  H        10.9132398421        6.8158499115       33.8129753245
  H         9.7135290075        5.8805202230       32.9015458625
  H        11.3857967833        5.2378250710       33.1558035040
  C        10.1128945225        5.3074094687       28.9499462208
  H        10.4403315934        4.3877638552       30.8216805273
  H        11.7551367321        4.0746980369       29.6715626493
  C        10.6936363192        5.1318815919       27.5615750527
  H         9.3093659255        4.5467746672       28.9746198480
  H         9.7995756763        6.3427980893       29.0936778023
  C         9.5735952825        4.5859230970       26.5669313196
  H        11.6328706211        4.5801936455       27.4996418919
  H        11.0736119040        6.1494346716       27.4222766213
  C         8.4178905626        5.5837073187       26.2056747441
  H        10.0106989347        4.2220811550       25.6303303132
  H         9.2927744409        3.5568983026       26.9297164180
  C         7.2526563601        4.8597387846       25.5334318375
  H         8.1006254854        6.0374261966       27.1259641870
  H         8.7458984798        6.3855549089       25.5825386160
  C         6.8728831655        3.4783602290       26.1878463379
  C         7.7686388884        4.0995806925       24.3402904847
  C         6.0322582624        5.7604425046       25.0936438558
  C         7.2014250283        2.3778032325       25.4457596377
  C         6.4034815998        3.1140836989       27.4433148527
  C         7.6841799744        2.7354905062       24.2230008040
  C         8.3484214503        4.7529604955       23.2264141251
  H         5.3052932651        5.1094761443       24.5213919509
  H         6.2463854626        6.5799153154       24.3548436067
  C         5.1399682438        6.3556533191       26.2061834981
  S         6.8058617416        0.8630392626       26.1958574702
  C         6.3099930827        1.7229376121       27.6446450117
  H         6.1418056956        3.8721796297       28.0990467024
  C         8.0814684117        2.0488318561       23.0952628294
  H         8.5487982386        5.8361098852       23.2568304052
  C         8.6372112968        4.1488126525       22.0654317818
  H         5.6172209486        6.1161236506       27.1192735383
  H         4.9888910613        7.4015086468       26.0305967730
  C         3.7957722533        5.5912022111       26.1991921765
  C         5.9093040718        1.0638646776       28.9141502282
  C         8.5409193494        2.8402367964       21.9502730291
  H         8.0275785414        0.9512423484       23.0728870943
  C         9.0227360784        4.5850472741       20.8817084382
  H         3.9136422799        4.5476303156       26.1875168032
  H         3.2047864890        5.7918838021       25.3322001156
  C         2.9474467823        5.9053805268       27.4520469606
  C         5.8088518904       -0.3367417795       29.1754643462
  C         5.5596197392        1.9421716688       29.9885639171
  C         8.9954344043        2.1555003242       20.7626799312
  C         9.1592218002        3.5006217721       20.0338382545
  S         9.3419442422        6.1534385709       20.1848080142
  H         2.2117905705        6.6244582104       27.1057462068
  H         3.4781750184        6.4211588554       28.1700881342
  C         2.1889164661        4.6885645574       27.9826400051
  N         5.9609265575       -1.3183376435       28.3062177228
  C         5.7327264998       -0.8097257441       30.4573475362
  C         5.2274679150        1.4124267647       31.2471418005
  H         5.8220599452        2.9957247191       29.9724916656
  C         7.8987602475        1.4440507025       19.9940117066
  C        10.2575799848        1.2880171462       20.9680674411
  C         9.5809148742        3.9937257918       18.7851459408
  C         9.7547300097        5.3485402559       18.6774304807
  H         1.7633363870        4.1210118934       27.1639245294
  H         2.8254716532        3.9548204685       28.4494180379
  C         1.0600881045        5.1738564031       28.8981182306
  S         6.1448129216       -2.7161855776       29.1090262441
  N         5.8728690171       -2.1682767744       30.5941227911
  C         5.3261031608       -0.0553268097       31.5473569361
  H         4.8917595652        2.0298472966       32.0542907167
  H         7.5122563295        0.6479407322       20.5754116795
  H         8.2986983667        0.8668922089       19.1657278662
  C         6.6944707745        2.2574055345       19.5393322917
  H        10.7582950610        0.8162117492       20.1406270765
  H         9.9059721843        0.4063839537       21.6061758092
  C        11.3429469173        2.0763133230       21.7460582604
  H         9.8706730448        3.3486360582       18.0213952866
  C        10.0356874180        6.1302737029       17.3997959515
  H         0.3608914291        4.3291467451       28.9671240926
  H         0.5721926852        5.9733457186       28.3356940815
  C         1.4838657396        5.5135212750       30.3273750472
  C         5.1055794453       -0.6700894618       32.8331678929
  H         6.9521144567        2.9355332084       18.7947576371
  H         6.3884469964        2.7954885010       20.4333241043
  C         5.5149093024        1.3618286719       19.1581775437
  H        10.9194330349        2.4021329505       22.7040838357
  H        11.4976328791        3.0582347279       21.2217620435
  C        12.7034113909        1.3278446987       21.8585642912
  C        10.0484494532        7.5550821276       17.2477504804
  C        10.2885843237        5.3542329673       16.1599782537
  H         2.2318392108        6.2522509384       30.2914965996
  H         0.6606004617        5.8319180679       30.9402145616
  C         2.1845936779        4.4477647810       31.1810467146
  H         5.1725803052       -1.6946041692       32.7875839718
  C         4.8729849562       -0.1981174968       34.0627643824
  H         5.1560177215        0.7279456022       19.9961553860
  H         5.7864867737        0.6745205464       18.3331358576
  C         4.4611089022        2.2512013524       18.5634435238
  H        12.4404632798        0.5380194495       22.5370558108
  H        13.1847367824        0.9026791159       20.8940855341
  C        13.8045401249        2.2718447825       22.4002018216
  N         9.7811484864        8.3935789371       18.2810222274
  C        10.2887150629        8.1810988640       16.0130567044
  C        10.5989225316        5.9584056194       14.9194156675
  H        10.3867389583        4.3452932959       16.1906408627
  H         2.3258944651        5.0446459806       32.1099130832
  H         1.5472554146        3.5923550054       31.5027164233
  H         3.2021124872        4.2542687279       30.8630467183
  S         4.7214356603        1.4038347849       34.4528281410
  C         4.7000004443       -1.1654213309       35.1957891430
  H         4.5148669549        3.1734714027       19.1291978709
  H         4.6190205248        2.3794170692       17.5067311788
  C         3.0594062964        1.6577615395       18.7196985171
  H        13.3283294308        3.0619105851       22.8344315229
  H        14.2480128941        2.7440685650       21.5596749667
  C        14.7539589070        1.5402653600       23.3594188470
  S         9.7200283991        9.8929561086       17.7342297927
  N        10.1192828988        9.5775907785       16.1765714235
  C        10.4823886690        7.4685609491       14.7902162823
  H        10.8659859213        5.3809017113       14.0684128423
  C         4.4499879885        0.8127598975       36.1233439917
  N         4.4020510686       -0.5363461916       36.2916600920
  O         4.8322499537       -2.3811868433       35.0949844039
  H         2.4756487239        2.3483595922       18.1483628340
  H         2.8166908004        1.5877893532       19.7666813335
  C         2.9873118337        0.2633639940       18.2022360131
  H        14.1601904742        1.0908544880       24.2073612853
  H        15.2223724719        0.7028915187       22.8741971977
  C        15.9132182611        2.3587694976       23.8793461285
  C        10.8392370831        8.2215832666       13.6699232476
  S         4.2490637258        1.7795729045       37.5960020784
  C         4.3208863402       -1.2446000236       37.5873614517
  H         3.4335939468        0.2729716094       17.2033379368
  H         3.4920240986       -0.3652907021       18.9981221009
  C         1.5647485644       -0.3041235503       18.1921540502
  H        15.7293310168        2.5816795332       24.9260213991
  H        15.9763460409        3.3241464249       23.3998714238
  C        17.2322037792        1.6058618777       23.7581813962
  H        10.6391540948        9.2707073343       13.7409583670
  C        11.3133186743        7.8231274076       12.3820349602
  H         3.7127751365       -0.6566042327       38.2449062075
  H         3.7005777144       -2.2015762486       37.5063779876
  C         5.6589099783       -1.3321747566       38.2481336109
  H         0.8222804501        0.1298659635       17.4744341375
  H         1.0678310755       -0.2171301038       19.0789908904
  C         1.5548015612       -1.7253534397       17.6947741540
  H        18.0424219627        1.9638425294       24.4537573720
  H        16.9937831302        0.6080292293       24.0600995820
  C        17.7358455576        1.5187110679       22.3270371856
  S        11.8858219560        6.3012530642       11.8720173071
  C        11.3757380188        8.8278363191       11.2974402920
  H         6.1277258572       -2.2276322429       37.8479685264
  H         6.2698480349       -0.4949029872       38.0426033325
  H         5.5769943643       -1.4018444938       39.3447041845
  H         2.3185490188       -2.4062999813       18.0690572009
  H         1.5866438254       -1.6230442644       16.6042726500
  H         0.6051933957       -2.2721410435       17.9526217855
  H        18.5954420311        0.9004420717       22.1760894180
  H        17.9914130449        2.4625764949       21.9188046580
  H        16.8556881638        1.2242895666       21.7593913668
  C        12.1410306630        6.9485901862       10.2746031936
  N        11.9633994998        8.2591812765       10.2145568534
  O        11.0373901497        9.9882651854       11.3736360641
  S        12.8872517093        5.9282507948        8.9854125747
  C        12.0574031937        9.0659061700        8.9959799620
  H        12.2959277662       10.1199945624        9.2611012278
  H        12.8519471339        8.7299961381        8.3102855604
  C        10.6934295922        9.0387295341        8.2451440659
  H        10.3471242181        8.0111440883        8.2751368503
  H         9.8739202709        9.7072932081        8.6424293874
  H        10.9220768421        9.0787814081        7.1559715111
  H        21.4734711755       11.2382100617        2.9307523623
  C        21.7762788561       10.2430544471        3.1454744902
  H        20.8834161956        9.6135188153        3.3322337667
  C        22.5539049921       10.4139226882        4.3883869554
  C        22.6119219175        9.7525576133        1.9025453702
  C        21.6718352411       10.4911160203        5.6634796556
  H        23.4117620465        9.7330208443        4.4292068461
  H        23.0716030829       11.3649771140        4.3867640669
  H        23.5233701478        9.2212505548        2.1148900767
  H        22.8900164758       10.6553980855        1.4392723062
  H        21.9109345500        9.1744985692        1.2670446825
  C        21.3354591302        9.0676210183        6.1603527498
  H        22.1597352417       11.1113245936        6.4146667832
  H        20.8397078519       11.1577858467        5.4080411147
  C        20.1762862430        8.9569966107        7.1509167665
  H        22.2429977880        8.6619261749        6.6782292500
  H        21.2231103147        8.3760619474        5.3149509997
  C        18.7960711927        9.3710921784        6.5571383781
  H        20.5669883439        9.5550030772        7.9324517398
  H        20.1193637161        7.9560692545        7.6066393135
  C        17.8467981004        9.6569309200        7.7345746793
  H        18.9991757500       10.3002252016        6.0296159921
  H        18.4242311415        8.7336031061        5.7892670827
  C        16.8211916034       10.6929393459        7.3031300811
  H        18.5751240288       10.1417927805        8.4946485916
  H        17.4956866863        8.7320110630        8.1643092278
  C        17.2852411408       12.0407943631        6.7003332023
  C        16.3035809870       11.4499437997        8.5386600686
  C        15.6900127345       10.0729412778        6.4122438329
  C        16.9257999333       13.1801127504        7.4922357792
  C        17.7233957996       12.4043611694        5.4188029113
  C        16.3559997295       12.7851390958        8.6560777958
  C        15.8726373653       10.7573746496        9.6568694065
  H        16.2593873557        9.7191162091        5.5132192371
  H        15.1724799259        9.3026068109        6.9968490649
  C        14.5098405102       11.0783921422        6.1049451241
  S        17.3185229814       14.6757738975        6.7103579598
  C        17.8078735437       13.7638634331        5.3255618537
  H        17.9166041653       11.5552908433        4.6994915627
  C        15.9142852225       13.3764850831        9.8036341459
  H        15.7814546935        9.6761828387        9.6300060207
  C        15.3107903628       11.3219131534       10.7387506495
  H        14.9136494416       11.8709807282        5.5060198846
  H        14.2053689361       11.5916922771        7.0355728263
  C        13.2940569628       10.4372662483        5.4742099239
  C        17.9586575566       14.4320566011        3.9835094857
  C        15.3097353477       12.6996478105       10.8745708890
  H        15.9758772740       14.4594753662        9.9300439959
  C        14.8703313736       10.9471990224       12.0348200390
  H        12.4119342831       10.8195723166        5.9949925555
  H        13.3533324861        9.3787146108        5.6224205167
  C        13.1111919013       10.9003160565        4.0501320695
  C        18.0271082118       15.7865608506        3.6232180173
  C        18.4214525005       13.5758402081        2.8227095501
  C        14.7951903332       13.3513798383       12.0713458709
  C        14.6273268256       12.0356094709       12.8080344010
  S        14.7929088539        9.4470674009       12.8304460931
  H        13.3604555851       11.9848451541        4.0605106838
  H        12.0206010139       10.8430681716        3.9670771497
  C        13.7490267336        9.8830050393        3.1259705822
  N        17.6880434799       16.8152371438        4.5308718108
  C        18.2451764042       16.2270115455        2.3448849334
  C        18.6939217423       13.9997053913        1.5178413632
  H        18.6020822870       12.4914965416        2.9709494710
  C        13.3956306256       14.0351906247       11.7435569047
  C        15.8738893334       14.2616727676       12.7844905202
  C        14.2121282928       11.7093744488       14.1061938482
  C        14.2782712271       10.3141132307       14.2945464692
  H        14.8180845482        9.8002529083        3.3345170367
  H        13.1962108815        8.9145064175        3.3129613189
  C        13.5778935254       10.2699371463        1.6611071044
  S        17.6509656916       18.2707265270        3.7404523005
  N        18.1739812169       17.6152058997        2.2998476290
  C        18.5939059695       15.4408569339        1.2704941807
  H        18.9765358727       13.3139580823        0.7257624843
  H        13.7071777277       14.8925713971       11.1080163160
  H        13.0609025251       14.5173699074       12.6688367153
  C        12.2678874841       13.1246092261       11.1106143634
  H        16.0969681369       15.1081043708       12.1281841457
  H        15.3696223813       14.6106768245       13.6991177230
  C        17.2321256307       13.5486875038       13.0547459819
  H        13.9007668469       12.3976541048       14.9173688584
  C        13.8196322806        9.6843418526       15.5652292028
  H        14.2480914432        9.7207267946        1.0096544641
  H        13.9909939275       11.2808980474        1.4968509685
  C        12.1071748391       10.0536847973        1.1000385575
  C        18.9143952347       16.1471802969        0.0307479084
  H        12.7250385431       12.6293579865       10.2248867973
  H        12.1032022104       12.3977013376       11.8122349588
  C        11.0515827855       13.8756401012       10.8007224873
  H        17.6966235885       13.2327799682       12.0779295866
  H        16.9603615633       12.6206881224       13.6050892396
  C        18.2670815741       14.3463697297       13.9172291212
  C        13.8356323121        8.3071010229       15.7210543498
  C        13.4435159323       10.4751111604       16.7860016869
  H        11.8356991353        8.9926755297        1.0351738930
  H        11.4211138343       10.6674531334        1.6870968607
  C        11.9494266538       10.6561455750       -0.3423463205
  H        18.8686574857       17.2004538630        0.0471454005
  C        19.2996341942       15.6655264461       -1.2177347298
  H        11.3221326695       14.7969453536       10.2710451302
  H        10.6545775853       14.1058022406       11.7791903971
  C        10.0776853170       13.1101026564        9.8804210293
  H        18.4419277326       15.2979716503       13.4863044397
  H        17.8180642027       14.7095924203       14.7826684461
  C        19.5210896124       13.6202817692       14.3956760139
  N        13.9958515372        7.3694704146       14.6805069686
  C        13.5118240837        7.6662600828       16.8904530591
  C        13.0825814345        9.8440626220       18.0289790065
  H        13.3078399559       11.5821672999       16.6923653982
  H        11.4477060425       11.6062739140       -0.4374410014
  H        11.4403599262        9.8971076058       -0.8915895040
  H        12.9455810345       10.6988364114       -0.7368978983
  S        19.5483360226       14.0342409967       -1.7193357766
  C        19.4566586711       16.7218912915       -2.3145422073
  H        10.0050926815       13.5560894745        8.8997657024
  H        10.3348039967       12.0675609880        9.7126278162
  C         8.7635047405       13.1343950913       10.5727944781
  H        20.0203836789       13.0989944441       13.5669039627
  H        19.1678396159       12.9059202778       15.1481597424
  C        20.5421570949       14.4692472398       15.0948760311
  S        14.1669024655        5.8708334356       15.2947104958
  N        13.5870530582        6.2353469619       16.8002324400
  C        13.1459307622        8.3272814706       18.0989873188
  H        12.7909150342       10.4436608909       18.8667731936
  C        19.8618797323       14.7532747290       -3.3203460916
  N        19.7427442193       16.0792183083       -3.4785109527
  O        19.3265618105       17.9510727095       -2.0676764217
  H         8.7005521875       12.8562555095       11.5838983004
  H         8.4280546630       14.1681960442       10.5905602643
  C         7.6326351024       12.3686604126        9.8012798392
  H        19.9789859254       15.2684142826       15.6403430056
  H        20.9222723901       13.8697281033       15.8618430459
  C        21.7663979666       15.0785467376       14.4222663036
  C        12.9118393263        7.4919867487       19.2892594397
  S        19.9763136413       13.7099822280       -4.6924245928
  C        19.8663318669       16.8021206134       -4.7595759973
  H         7.8941426473       12.2940606941        8.8337541239
  H         7.6256413144       11.3320579137       10.1129559965
  C         6.2663875111       12.9697996342        9.9411325320
  H        21.9927423378       14.2958302534       13.6691757954
  H        22.5603459613       15.1927956682       15.1886723090
  C        21.4363092764       16.4010448958       13.8028628844
  H        13.0419449602        6.4565043232       19.0525619060
  C        12.4856274792        7.6637429433       20.5778518049
  H        20.5740480078       16.2715522968       -5.4530458575
  H        20.3515944293       17.8036512024       -4.5914450678
  C        18.4863444303       16.9182304616       -5.3378173735
  H         6.1326956875       13.5663925132       10.7896765393
  H         5.6358828362       12.0957862631        9.9789419967
  C         6.0313410301       13.6686904170        8.6639901744
  H        22.0589741058       16.4947960102       12.9534674571
  H        20.4579847927       16.4273169170       13.3506828518
  C        21.5808028244       17.5690811396       14.7594787649
  S        12.0081594855        9.1316017853       21.2302094124
  C        12.4765449428        6.4881208930       21.4545593351
  H        17.7813858470       17.1525759713       -4.5243048261
  H        18.1240342500       16.0094773293       -5.8170599878
  H        18.3698369718       17.7336774401       -6.0943606556
  H         5.0334787677       14.2500872078        8.7635515494
  H         6.7421474438       14.4152705698        8.4576017003
  H         5.9410007529       12.9945897104        7.7734958039
  H        20.8020552544       18.3410746036       14.5537095697
  H        21.4935817040       17.3115215847       15.8245344172
  H        22.4900774184       18.1413570628       14.6192836886
  C        11.5487081263        8.1860328337       22.6624120184
  N        11.8466667195        6.8620173594       22.5979074866
  O        12.7529636873        5.3528626903       21.0511067586
  S        11.1760040942        8.9099723144       24.2066265975
  C        11.5900644186        5.9084187394       23.6497375132
  H        11.4314905216        4.8846975915       23.2598399035
  H        10.5609998364        6.1424648322       24.0086173486
  C        12.6925244553        5.9810930710       24.7441175412
  H        12.2993889528        5.4253892863       25.6116676102
  H        13.1525637167        6.9537069077       25.0136728935
  H        13.6415689704        5.4927970623       24.4520213465
