352
 i =    71200, time =    71200.000, E =        24.9732038497
  H        12.5990538493        4.9976917425       31.8455318856
  C        11.6389532555        5.2104008420       32.1175302570
  H        11.0768806847        4.3188624430       31.8588497754
  C        11.0832325564        6.4113168059       31.3307077328
  C        11.6366494427        5.3835528274       33.5944016025
  C        11.6799188500        6.4713080747       29.8656659124
  H         9.9685860624        6.2919113995       31.2310818581
  H        11.1207949017        7.4161834085       31.8268087264
  H        12.0558487783        4.4972389189       33.9811334380
  H        12.1374939246        6.3318728819       33.9818994522
  H        10.6625696543        5.4501362311       34.0679571990
  C        10.5919024483        6.1414652071       28.8710081017
  H        12.5157842752        5.7465974753       29.6132004765
  H        11.9417481233        7.4517338008       29.4906076030
  C        11.1278193905        5.8262213131       27.4591526705
  H        10.0435861093        5.2210153515       29.1194257673
  H         9.8620871030        7.0151595197       28.8818341403
  C         9.9796295194        5.1725528875       26.6980112394
  H        12.1487464475        5.2921440123       27.3822411732
  H        11.3721886554        6.7805045696       27.1049200721
  C         8.6215193735        5.9934070306       26.4337096452
  H        10.4076635124        4.8153390225       25.7558766263
  H         9.8635873690        4.2200732111       27.2464792979
  C         7.5631993488        5.1793061351       25.6265629296
  H         8.1595805073        6.1232044314       27.4271622215
  H         8.7567703427        6.9474229503       25.8448411871
  C         7.3094754646        3.8012710186       26.2759632143
  C         8.0447304917        4.4376364682       24.3637829434
  C         6.2675704653        5.8921055838       25.1350795201
  C         7.4942599929        2.7181515427       25.4560684435
  C         6.9840562679        3.4977174267       27.5991203393
  C         8.0424070845        3.1324190909       24.2299542885
  C         8.4510730200        5.1891558667       23.2363512308
  H         6.1812396613        5.6595143624       24.1000354525
  H         6.4351031070        6.9378293127       25.2419817878
  C         4.9572745497        5.4919106537       25.8655774345
  S         7.2297394960        1.2308857315       26.3336399911
  C         6.8950034449        2.1541939343       27.8142180331
  H         6.7590530833        4.2947702149       28.3170164335
  C         8.4385140692        2.6116450959       23.0577041592
  H         8.3018266759        6.2528807389       23.3504875149
  C         8.8509011200        4.6777744828       22.0740515127
  H         4.8525630924        4.4629620046       25.7244350210
  H         5.0319803817        5.7425406486       26.9169046325
  C         3.6064946343        6.1753570730       25.4399101353
  C         6.4720434730        1.4299386618       29.0828845758
  C         8.8176503444        3.3757688792       21.9397348314
  H         8.4021691528        1.5583471932       22.8419595345
  C         9.1590164274        5.0474362031       20.8447731127
  H         3.2780249892        5.5947504684       24.5372811113
  H         3.8922416357        7.1948241404       25.0612568440
  C         2.5560158966        6.2342181402       26.6066256451
  C         6.3037680970        0.0473416735       29.3670595662
  C         5.9597256869        2.3347622703       30.1809878521
  C         9.1054781636        2.6799870088       20.6820056290
  C         9.3131578520        4.0240633979       19.9695044892
  S         9.4307663310        6.5757709915       20.1942277103
  H         1.6269067377        6.7811496771       26.2197810557
  H         3.0249515781        6.9063117670       27.3451816207
  C         2.1935099252        4.8544582921       27.2311555643
  N         6.4607910433       -0.9392346604       28.3673280129
  C         5.9429151109       -0.4469338427       30.5881112053
  C         5.5881131213        1.8447020651       31.4005216132
  H         6.0283539874        3.3723233158       30.1041840415
  C         7.9181694830        1.9885996039       19.9806871744
  C        10.4642771045        1.8995242566       20.7388643198
  C         9.6875116402        4.3767551403       18.6817558241
  C         9.6959387218        5.7613742394       18.5922299550
  H         1.5134609855        4.2929819307       26.6803099747
  H         3.0181375016        4.2398067481       27.5082881104
  C         1.4780867588        5.0876161343       28.5525951568
  S         6.4507964389       -2.3511104659       29.1043423484
  N         5.8897383717       -1.8936516375       30.5251189880
  C         5.4633348913        0.3467996206       31.6217569451
  H         5.3100261853        2.5278458880       32.1974735120
  H         7.9080927307        0.9392550874       20.3715780981
  H         8.3031698257        1.8100715825       18.9415255194
  C         6.5737582312        2.6378021613       20.0149211299
  H        10.6563874598        1.3112047471       19.8423489658
  H        10.3303343911        1.1862622432       21.5951987969
  C        11.8075216912        2.7216551511       21.0574701648
  H         9.8063493512        3.6566276652       17.8671192403
  C         9.9842190135        6.5785280409       17.3157164937
  H         0.6979891165        4.3252326621       28.6433551538
  H         0.9717893222        6.0401042238       28.3714022292
  C         2.4455889771        5.2395818332       29.7266955911
  C         5.1223986981       -0.3373337425       32.8476008877
  H         6.6279599548        3.5544014972       19.4850620419
  H         6.3628826742        2.9119945133       21.0850093510
  C         5.3955731620        1.7988018343       19.5733194708
  H        11.5687184600        3.2312158002       22.0572431319
  H        12.0437649182        3.4830139591       20.2448465873
  C        12.9937400564        1.7951415515       21.2145418019
  C        10.1244259064        7.9824283743       17.1604876787
  C        10.2252801076        5.9147065676       16.0189067785
  H         3.1420174447        4.3640315713       29.9515936649
  H         3.0996385392        6.1356402957       29.5760002977
  C         1.7126790852        5.3945835344       31.0825217182
  H         5.1895622938       -1.4138180304       32.8216477139
  C         4.7392919035        0.1575599424       34.0666959460
  H         4.7071010634        2.6258056773       19.5116218188
  H         5.0131515030        1.0524115495       20.3465670905
  C         5.4271442557        1.2415415390       18.1790992981
  H        12.9147046167        1.0521222887       22.0008566859
  H        13.1548940599        1.2186037638       20.3359035360
  C        14.1046745600        2.7171176491       21.5752223758
  N         9.9120482628        8.9073786545       18.1475398656
  C        10.5258529853        8.6165354468       16.0004997834
  C        10.6851658172        6.5075359142       14.8657323687
  H        10.0257591294        4.8171966109       15.8455690804
  H         1.4398260262        4.4194621468       31.5737109480
  H         2.2799063059        5.9979069192       31.7542069413
  H         0.8741214400        5.9608973280       30.7229820451
  S         4.3864594687        1.8214041481       34.5410469799
  C         4.5188267063       -0.8608580195       35.0704314424
  H         5.8359534921        2.0565879402       17.5443958796
  H         6.0899256010        0.4021635322       18.0524051128
  C         3.9131371527        0.9761899025       17.7239932192
  H        13.8027257331        3.4280752669       22.3322999760
  H        14.4133373146        3.3468557523       20.7328493068
  C        15.2806548547        2.0087802922       22.1427415147
  S        10.1314975452       10.4129386854       17.5736663358
  N        10.4820469046       10.0058974355       16.0477828942
  C        10.8998602804        7.9988558170       14.7934278610
  H        10.8205220603        6.0377266731       13.9021588945
  C         4.3014858299        1.1325650533       36.1506216384
  N         4.3605830025       -0.2123341464       36.2254771310
  O         4.6947151191       -2.0452137259       34.9602623113
  H         3.9235110138        0.5746151990       16.7126123886
  H         3.2100174422        1.7269829916       17.4535153903
  C         3.1187670507       -0.0290539282       18.5871014575
  H        14.9242932778        1.1478993960       22.6326077161
  H        15.8388124232        1.7350214415       21.2491649045
  C        16.0742599050        2.8573567384       23.1126939234
  C        11.2347854683        8.7404706284       13.5986396063
  S         3.8864541867        2.0717370381       37.6331672127
  C         4.4173909196       -0.9490078980       37.4861230384
  H         3.6198446088       -0.0834631644       19.5689573264
  H         2.1934144720        0.3884856284       18.5844232757
  C         3.1099425102       -1.3673031843       17.9014228006
  H        15.3869882685        2.8822287283       23.9618072107
  H        16.2644318331        3.9387095923       22.7101944069
  C        17.2862854669        2.1677515266       23.6063107629
  H        11.0005921091        9.7736546801       13.7472733920
  C        11.6623424175        8.3928987289       12.3253940522
  H         3.7400584115       -0.6426061917       38.2106709046
  H         4.1671025279       -1.9781937136       37.3533567331
  C         5.7617561223       -0.9624607585       38.1220400615
  H         2.9537402195       -2.1965843243       18.6118521994
  H         4.0557751752       -1.5968473677       17.3344749246
  C         2.0061423530       -1.4353180642       16.7937857961
  H        17.6574502535        2.4885275101       24.5955696988
  H        17.0730066969        1.0923411011       23.8725586710
  C        18.5721365996        2.2620215862       22.7362348385
  S        11.9489543343        6.8031631242       11.8221101486
  C        11.7300699521        9.5256718138       11.2945596409
  H         5.7840564996       -1.9152491245       38.6991063608
  H         6.6171185584       -0.9635982090       37.3892593208
  H         5.9485381143       -0.0541623830       38.7004042968
  H         1.0870958293       -1.0691941088       17.2708412292
  H         1.8201741100       -2.2952862331       16.1291224245
  H         2.0709562208       -0.6195369011       16.1051276878
  H        19.0303446151        3.1913124432       22.5818326541
  H        18.3468094245        1.8939167216       21.7690239650
  H        19.2922428799        1.6076307877       23.1572543074
  C        12.3111785337        7.5880842934       10.2682955053
  N        12.2013826088        8.9447037567       10.1991513803
  O        11.4684588513       10.6896903747       11.5140923363
  S        13.1054159227        6.9263417241        8.8478727198
  C        12.3809912446        9.7087251463        8.9703052701
  H        12.4997842454       10.7962129948        9.2724787713
  H        13.2463643690        9.5455864392        8.3507025884
  C        11.0553287700        9.7290835995        8.1806344238
  H        11.1425196805        8.8535987007        7.5337680019
  H        10.2380658273        9.4437461673        8.8201005545
  H        10.7877150766       10.5214081384        7.4053363757
  H        21.2204541701       11.3369242359        2.4345897871
  C        21.8265723726       10.4527873478        2.4898877671
  H        21.1378575422        9.6334793062        2.5263730754
  C        22.5475513979       10.5127061822        3.8554727747
  C        22.8700939123       10.3049680617        1.4124063513
  C        21.6455453904       10.6226225965        5.0819007447
  H        23.3200496360        9.7054712276        3.8842762299
  H        23.1052917078       11.4360295082        3.8375651841
  H        23.9062817334        9.9222506169        1.7022413948
  H        23.0022859654       11.1832307605        0.8962460713
  H        22.5883972403        9.5839178738        0.7227104755
  C        21.2286015072        9.2932403075        5.6807973819
  H        21.9823000003       11.2832062001        5.9277596283
  H        20.7437682558       11.1015775903        4.6826819721
  C        20.2359081832        9.5208204437        6.7306735346
  H        22.1098336947        8.7298482513        6.0495473507
  H        20.7157015806        8.6905942164        5.0121392927
  C        18.8593142374        9.7950534247        6.1810099901
  H        20.4503882907       10.3899784429        7.3912321365
  H        20.2254098495        8.6760586974        7.3653603961
  C        17.7849448083        9.9697517813        7.2045724555
  H        18.8433573079       10.5487398292        5.3674137783
  H        18.5480265678        8.8633405784        5.7542468915
  C        16.5092654560       10.7829142984        6.8467989604
  H        18.2033245502       10.3180899014        8.1313757644
  H        17.3879402284        9.0029327175        7.4015570538
  C        16.9117729103       12.1276096790        6.1310823861
  C        16.1444877923       11.5481955900        8.0642913975
  C        15.3509137520       10.0614610614        6.0862858790
  C        16.9270318936       13.2278952389        7.0227292487
  C        17.4530739577       12.4852647629        4.8745523205
  C        16.4219446518       12.8069121614        8.2385919511
  C        15.6303963032       10.8768147170        9.1525051438
  H        15.7498628124        9.4069294688        5.3186710410
  H        14.7960875036        9.3531495047        6.7335633436
  C        14.2308272546       11.0056673088        5.6355557581
  S        17.4901238901       14.6958154092        6.3302141253
  C        17.7732555234       13.8273726234        4.8443306546
  H        17.5927743942       11.7141041926        4.1599800289
  C        16.1240257900       13.4270860887        9.4270898844
  H        15.4819767776        9.8041255314        9.1484610122
  C        15.4401393895       11.4562656245       10.3883478532
  H        14.5856495571       12.0239815127        5.2497926191
  H        13.6170636780       11.2478830756        6.4858450126
  C        13.1762993825       10.3346644611        4.6622653490
  C        18.3460216397       14.4515071780        3.5792197412
  C        15.6895905866       12.7926630124       10.5601985954
  H        16.2821239845       14.4536936598        9.6343478787
  C        15.1455405670       11.0996240785       11.6775302871
  H        12.2620386241       10.8971722274        4.8008797670
  H        13.0104341459        9.3190878839        4.9567755588
  C        13.8381196386       10.3025266853        3.2606134942
  C        18.4318222616       15.8587261092        3.4275279490
  C        18.9000687796       13.6262056909        2.4264741261
  C        15.4757858910       13.5481313162       11.8603123204
  C        15.1400974110       12.1840467377       12.5423131048
  S        14.8893580874        9.5923433890       12.4800456075
  H        14.6824971877        9.5521694329        3.2795358376
  H        14.1544232544       11.2457086367        2.9455149013
  C        12.8222208307        9.8285510778        2.1719737351
  N        17.9936581040       16.8169381781        4.3929735069
  C        18.7529719886       16.4978787761        2.2032061791
  C        19.2261445165       14.3028873781        1.2623752035
  H        18.8362488975       12.5643402728        2.4553913231
  C        14.2088514303       14.4158314977       11.7444181954
  C        16.6282299210       14.2884927781       12.5261586555
  C        14.7697252043       11.8381151228       13.8343255752
  C        14.6342710776       10.4658207768       13.8808693161
  H        12.2473396179        8.9420145516        2.5690056368
  H        12.1182679921       10.5720678783        1.9147063473
  C        13.4821849120        9.3447494417        0.8967586743
  S        18.0062283747       18.3126085086        3.7059298357
  N        18.4233464656       17.8091925492        2.1851988712
  C        19.1357361901       15.7722654246        1.0242670096
  H        19.3371726432       13.6569093734        0.4606089503
  H        14.5347050297       15.1200762117       10.9664997121
  H        14.0684503316       14.9136558137       12.7159014951
  C        12.8638979477       13.7445906621       11.3064866292
  H        17.0048276352       15.1040141188       11.8344212199
  H        16.2793933968       14.7630076630       13.5111656008
  C        17.8491134202       13.4546380858       12.8661636762
  H        14.6977870448       12.5930476157       14.6265749513
  C        14.2862538046        9.7455982382       15.1521730949
  H        12.8044888734        8.6808572410        0.4242689220
  H        14.3762304080        8.7606820105        1.1814946297
  C        14.0130900098       10.3084780276       -0.1017366231
  C        19.3332724522       16.5115984861       -0.1936201789
  H        12.9820046955       13.1346169508       10.3990807057
  H        12.5470854346       12.9096106954       11.9859641001
  C        11.7038010196       14.7626854362       11.1829074501
  H        18.1353528467       12.9345464271       11.9247449864
  H        17.7394475745       12.7352963745       13.6354531605
  C        18.8846120055       14.4871186134       13.4302669636
  C        14.1871069382        8.3528096571       15.3637469824
  C        14.0281271419       10.5595767700       16.4135998840
  H        14.3129538465       11.2909117140        0.3711584559
  H        14.9257025716        9.9121739796       -0.5301593747
  C        13.1143509644       10.6153803974       -1.3012017294
  H        19.4129086167       17.6072370257       -0.0882850110
  C        19.5461170687       16.1046707698       -1.4773500336
  H        11.9276503336       15.4572328437       10.3658847216
  H        11.5211672713       15.3486718596       12.1162355231
  C        10.3106709835       14.0919466614       10.9750583499
  H        18.9993808478       15.3428306797       12.8072976252
  H        18.5338477130       14.9070187717       14.4075656359
  C        20.2821686533       13.9832632836       13.7397740683
  N        14.4024320019        7.3730090260       14.3652034619
  C        13.8974158529        7.7083630546       16.5279164255
  C        13.6615240981        9.9177429174       17.5316015892
  H        14.1506286709       11.6443185122       16.4764312736
  H        13.2551214608       11.5964640457       -1.6919219287
  H        12.0675996027       10.4699183988       -1.0371137446
  H        13.3971440870       10.0374337036       -2.1698649902
  S        19.7882944581       14.5047253611       -2.0568747428
  C        19.5026993937       17.1412104519       -2.5032592760
  H        10.4949080886       12.9977897291       10.8933185076
  H         9.7608318269       14.1601104311       11.9081579070
  C         9.5054937503       14.6494222060        9.8636744781
  H        20.8271524468       13.6416730987       12.8653885334
  H        20.0362735703       13.1870647379       14.3955948785
  C        21.0800616551       15.0018783124       14.4529799856
  S        14.2310296587        5.8954206151       14.9171028921
  N        13.7810180324        6.3111790273       16.4159532186
  C        13.5575963233        8.4101622387       17.7127122279
  H        13.4998636070       10.5364500289       18.3763329946
  C        20.0771575609       15.2044045661       -3.6532770109
  N        19.8884782010       16.5673013631       -3.6686746011
  O        19.3610646583       18.3287868703       -2.1983707629
  H         8.8020738514       15.4338625062       10.2095860927
  H        10.0584346072       15.2610485026        9.2127659684
  C         8.6121586445       13.6417458108        9.0743884304
  H        20.5467856681       15.1731979863       15.4260587750
  H        22.0255335038       14.4804352934       14.7000768371
  C        21.4366911947       16.3056732153       13.7634653898
  C        13.2634923328        7.6735696818       18.9211883244
  S        20.5024725525       14.2564638827       -5.1377189052
  C        19.9387666947       17.3998367224       -4.8752007370
  H         9.1895153516       13.3978472538        8.1932980046
  H         8.5486090421       12.6611990926        9.6639663933
  C         7.1903815333       14.0378526402        8.7661102854
  H        20.5428641854       16.8618611715       13.3176551234
  H        22.0244495670       16.0585877088       12.8516284306
  C        22.2518473663       17.2637057103       14.5975219817
  H        13.4449873276        6.6090623894       18.7500450026
  C        12.7275998917        7.9872494663       20.1493291391
  H        20.6704419496       17.1287081050       -5.5527361157
  H        20.2762249195       18.3160367204       -4.5229372676
  C        18.4789828354       17.5305474895       -5.4876448244
  H         6.8576909997       13.4761749172        7.8293881342
  H         7.2793981578       15.0623937403        8.3314170989
  C         6.2068932116       13.9340865037        9.9755218599
  H        23.0798938961       16.6266316263       14.8138959834
  H        22.6960077529       18.0675716699       14.0238738860
  C        21.4793897602       17.7716503325       15.7855945767
  S        12.2492173917        9.5165230031       20.5798384219
  C        12.5974174824        6.8857476382       21.1540970800
  H        17.7961909808       17.6535192448       -4.6249011444
  H        18.1744677343       16.6683730102       -5.9759050885
  H        18.4121342207       18.4158464886       -6.1574280889
  H         6.4451498466       13.1252398620       10.6574510235
  H         6.2538011447       14.8370677279       10.5963514495
  H         5.0977602168       13.9315701262        9.8140432837
  H        20.4792896579       18.1170850170       15.5507345921
  H        21.3581194593       16.9657503166       16.5194101096
  H        22.0732867692       18.5791468588       16.2118816587
  C        11.9278717847        8.8266735283       22.1671849415
  N        12.2010481844        7.5167286521       22.3150319339
  O        13.0687883756        5.7789587994       21.0332380850
  S        11.3650575755        9.7823185331       23.5103404268
  C        11.9943749555        6.6868597384       23.4996243896
  H        11.4943526408        5.8242772210       23.1141159902
  H        11.3892678860        7.2048577105       24.2494894621
  C        13.2860493220        6.2349954074       24.1504824663
  H        13.9978104984        5.7363855025       23.3864199295
  H        13.1849524885        5.5938424930       24.9972636297
  H        13.7298841988        7.1690463452       24.5817681403
