352
 i =     4400, time =     4400.000, E =        34.2073939350
  H        12.3077070697        5.2266292837       32.3647840783
  C        11.2025803487        5.4248316513       32.4472469232
  H        10.6478762931        4.5053554958       32.5839198967
  C        10.3586122316        6.0085987348       31.2724888718
  C        11.1510759301        6.2719085035       33.6611674488
  C        10.6719511578        5.4471522553       29.8941924797
  H         9.3101219476        5.9399125919       31.4851774500
  H        10.4521304310        7.1632583017       31.1303337236
  H        11.5490985873        7.3306185784       33.5224023789
  H        10.1337814559        6.3857567501       33.9823509972
  H        11.5992519675        5.9153401118       34.5723695484
  C         9.6315523502        5.9018615861       28.8533474225
  H        10.7453809445        4.3485701978       29.9044696669
  H        11.6786321231        5.7626557093       29.5233798578
  C        10.1687138860        5.7884568651       27.3877669903
  H         8.6860520475        5.4137724926       28.9755907119
  H         9.2668486901        6.9325055237       29.0787197803
  C         9.1964894641        4.9632663313       26.4630402532
  H        11.1729719290        5.3069543989       27.4063187369
  H        10.3339775898        6.7581789820       26.8994303752
  C         7.8923829360        5.8049824835       26.2511170113
  H         9.7297275515        4.7049939425       25.4780002820
  H         8.9036577444        4.0332047715       26.9432136795
  C         6.7579828964        5.0400711197       25.6189027183
  H         7.2896957958        6.1500763729       27.1553279928
  H         8.1410648457        6.8157960740       25.7425842225
  C         6.5119466823        3.6472440517       26.3241638873
  C         7.2666233152        4.3467315674       24.3729984172
  C         5.4284199362        5.8370621981       25.3560124334
  C         6.9091913455        2.6176692174       25.5778035660
  C         6.0491294546        3.2039351150       27.5648087199
  C         7.3209993589        2.9401750108       24.3174273352
  C         7.7276834505        4.9988244881       23.2236509536
  H         5.7733085327        6.7204154294       24.7278509720
  H         5.0689093275        5.9560537272       26.3357496510
  C         4.3691242483        5.0855549842       24.5855449826
  S         6.5763630584        1.0848375451       26.2460585188
  C         6.0147213486        1.8571040821       27.6383367992
  H         5.7554965617        4.0152717255       28.2372672267
  C         7.8373765189        2.3326195703       23.2510346167
  H         7.7466062646        6.0963828426       23.1092197845
  C         8.1754372585        4.3450764602       22.1286444933
  H         4.8512052559        4.9136525560       23.6149954721
  H         4.1779507159        4.1802154945       25.0558177976
  C         2.9613642213        5.6860374305       24.3094538175
  C         5.6692641894        1.0880532040       28.8729047988
  C         8.1885592383        2.9718639320       22.0660563797
  H         7.9365218617        1.2138720385       23.1917580502
  C         8.6059275701        4.7892320325       20.8692220252
  H         2.3458512501        5.0680854732       23.6974214551
  H         3.0784534430        6.5168330752       23.4739546619
  C         2.2542672795        6.1164928819       25.5595951666
  C         5.7397113218       -0.3209200911       29.1149810853
  C         5.1557425805        1.8779102630       30.0331851089
  C         8.6917367236        2.3222957309       20.7994779737
  C         8.8898538318        3.6727689388       20.0940554377
  S         8.8649073752        6.2618956698       20.0792284664
  H         1.3942090377        6.6504929258       25.2050390295
  H         2.8181922714        6.7234617325       26.2808287124
  C         1.7544154381        4.9766632457       26.4099182627
  N         6.1749466476       -1.2514776420       28.2031594575
  C         5.5704765917       -0.8757405749       30.4403202784
  C         4.9241534830        1.3208590383       31.3429196845
  H         5.1113590761        2.9217028273       29.9207661170
  C         7.8516421283        1.2945464526       20.1099664349
  C        10.0732025577        1.5707388534       21.1194392745
  C         9.2816044729        3.9933541047       18.8213594607
  C         9.2970113959        5.3517025061       18.6240647806
  H         0.8064043752        4.5822534264       26.0657784579
  H         2.4437667969        4.1295083785       26.2823905428
  C         1.5520326517        5.1930521390       27.8954266007
  S         6.3101630360       -2.7127399721       28.9195218089
  N         5.6675802430       -2.2656721820       30.3717506090
  C         5.1794275380       -0.1387425842       31.5302004547
  H         4.5049824235        1.8931274209       32.0861718457
  H         8.1120502855        0.2633127434       20.6186921674
  H         8.3167424364        1.1788833618       19.1438399214
  C         6.3201894178        1.8375420434       19.9638276046
  H        10.3671700330        1.1300477401       20.1512295884
  H         9.9250639839        0.8539247600       21.8852038749
  C        11.1884597226        2.5234410931       21.5765075992
  H         9.3344528980        3.2035839863       18.0451801978
  C         9.4913821429        6.1183852194       17.3469936178
  H         0.8252935847        4.4700991615       28.2440715005
  H         1.0316532095        6.1764686084       27.8075020891
  C         2.7829999185        5.3146291881       28.8553109423
  C         4.9730430723       -0.8802990167       32.7677362366
  H         6.2638018355        2.8206337555       20.3378553458
  H         5.7115656759        1.0948376800       20.4659333293
  C         5.9391648732        1.9330680266       18.5093049185
  H        10.9784415345        3.0225744447       22.5328016845
  H        11.2621868667        3.2316192705       20.7462886350
  C        12.5491136231        1.7797156712       21.5814883784
  C         9.6347782609        7.5290945594       17.1601718270
  C         9.9602947635        5.2618275969       16.2098460370
  H         3.3275156478        4.3258993210       28.8668186335
  H         3.4383432310        5.9987435279       28.3755878398
  C         2.2219886634        5.6582993859       30.2539832215
  H         5.3430675332       -1.8374422339       32.6520261879
  C         4.6639965196       -0.4543474228       34.0449044012
  H         5.8954978639        0.8777322738       18.0822799871
  H         6.6785889094        2.4839147365       17.9803718882
  C         4.5962486636        2.6181152544       18.1504182686
  H        12.4185303586        1.0281358507       22.2375538165
  H        12.6744880530        1.3632936591       20.6307247419
  C        13.6291006663        2.8392846192       21.7738856877
  N         9.5325426143        8.4809716069       18.2039367938
  C        10.0752652564        8.0337064990       15.9508114527
  C        10.3042563698        5.8447708826       14.9475619857
  H         9.5486564078        4.1924974700       16.2418173872
  H         2.9883603449        5.7101841989       30.9142237705
  H         1.7051280420        6.6043694718       30.1942453114
  H         1.3520078857        5.1067928885       30.6072414107
  S         4.5180865684        1.2188336841       34.5652851863
  C         4.8134604410       -1.4081699408       35.1396573262
  H         4.5288631927        3.6071836452       18.5341304456
  H         4.5189755570        2.6090046748       17.0539218942
  C         3.4774335214        1.6825371348       18.6573802057
  H        13.3860056698        3.4105225861       22.7283886450
  H        13.4483012667        3.5281528863       20.9880713198
  C        15.0991782628        2.3972503606       21.8811202496
  S         9.6896649706        9.9334548626       17.5364873377
  N        10.1185881395        9.4383303112       15.9699105401
  C        10.3663504438        7.2965828942       14.7963621990
  H        10.4331680270        5.2808218777       14.0498036333
  C         4.6632887713        0.6461341438       36.1628509304
  N         4.6917285902       -0.7301765783       36.2995619100
  O         4.7249967128       -2.5884254655       34.9756702578
  H         2.5001230771        2.1707863284       18.6134775622
  H         3.5763242416        1.7141025383       19.6673927758
  C         3.4629069968        0.3099241862       18.0484432509
  H        14.9161274243        1.2919181409       21.6677007563
  H        15.7658428429        2.9078796877       21.0626073704
  C        15.7273784600        2.8188435126       23.2685281874
  C        10.6554098402        8.0236822814       13.5907283971
  S         3.9954683504        1.4626746512       37.5491251839
  C         4.9656628141       -1.3755755873       37.6179145206
  H         3.3475550883        0.2623122911       16.9891608452
  H         4.2966131429       -0.3199236801       18.2254065429
  C         2.2740007885       -0.5234815091       18.6820941340
  H        15.0447082130        2.7372220699       24.0984484154
  H        15.9823977649        3.8455507959       23.1558479659
  C        16.8197365005        1.8997326939       23.7280330327
  H        10.2622950830        9.0188062825       13.6370397147
  C        11.3110040622        7.7385457261       12.4130654920
  H         4.4514206450       -0.9117169979       38.4533476073
  H         4.4539957561       -2.3702871803       37.4878050646
  C         6.4253504564       -1.6000361661       37.7783109506
  H         1.6992661019        0.2077243552       19.1089834684
  H         2.8638332251       -1.2110961299       19.2978290459
  C         1.5167417554       -1.4188795451       17.7404376914
  H        17.3117917444        2.4178835021       24.5825127858
  H        16.3908091530        0.9568459932       23.9855358237
  C        17.8263157096        1.6739388452       22.6352017344
  S        11.9918286742        6.2978345597       11.9005409622
  C        11.4673051780        8.8787108731       11.3767150024
  H         7.0362014077       -0.7421044006       37.4692757107
  H         6.7805997138       -1.9412383703       38.7547782000
  H         6.8206060163       -2.3604486147       37.0515453821
  H         1.9813572775       -2.4085776009       17.7703403308
  H         1.4673158780       -0.9876384003       16.7613681279
  H         0.4733218875       -1.5630489367       18.0907181625
  H        18.1659404315        2.6487757568       22.2015380923
  H        17.5699773986        1.1853026714       21.7554078911
  H        18.6549967418        1.1588228653       23.2205700214
  C        12.6198806900        7.1933584176       10.6147964639
  N        12.1003084136        8.3851446808       10.3566402660
  O        11.0768567007       10.0397964713       11.4865689555
  S        13.4569457900        6.2282769713        9.3592918575
  C        12.3730426582        9.2920714254        9.1828909326
  H        12.3725095108       10.3538184625        9.4275165011
  H        13.3149482416        9.0172855021        8.6442863458
  C        11.3745033506        9.0649804212        8.0798590706
  H        10.8169988341        9.9888389965        8.0048473364
  H        11.7190245369        8.7804443624        7.0828519217
  H        10.7299655446        8.2412198576        8.4039756346
  H        20.1308842950       10.7350212935        3.7291964411
  C        21.0205490804       10.1225221678        3.6796278522
  H        20.8289793198        9.0737862203        3.8825882173
  C        22.0729102342       10.5927272138        4.7126023618
  C        21.5983906274       10.2494940329        2.2448753154
  C        21.4997418185       10.8220307682        6.1650183393
  H        22.8872423607        9.8550208530        4.7693756307
  H        22.5403780658       11.5223575103        4.4412271635
  H        22.2746666965        9.4816805016        2.0283514860
  H        22.3304778911       11.0797777923        2.0945506815
  H        20.9209039486       10.1708701635        1.3779576307
  C        21.2996928212        9.5212437405        6.7964435962
  H        22.2554649228       11.3565542228        6.7716095795
  H        20.6029242706       11.4570429493        6.0876782851
  C        20.6436375193        9.7949039157        8.2205643269
  H        22.2795617354        9.0262719119        6.7933206875
  H        20.6643682181        8.9208046152        6.1860059389
  C        19.2406682785       10.4359219811        8.2789256587
  H        21.2006647964       10.4861686682        8.7658504533
  H        20.7443653105        8.8867947185        8.8528360991
  C        18.0215852375        9.6418562295        7.6840057649
  H        19.0653520877       10.6227209855        9.2839205931
  H        19.4397278649       11.4156003381        7.8987247028
  C        16.7881406152       10.5107990648        7.4283123423
  H        17.7358895227        8.6732617166        8.1703471497
  H        18.1877582442        9.3915206573        6.6179228394
  C        17.1245860369       11.8142254294        6.7256359495
  C        16.2710477837       11.2080977396        8.6018206581
  C        15.6261802984        9.7830238496        6.6501319270
  C        16.8391358819       12.9477705875        7.4787190812
  C        17.6433066650       12.1461516470        5.4931934598
  C        16.1486359791       12.5830730300        8.6399842491
  C        15.8195887116       10.5412186618        9.7607969650
  H        15.8975428840        9.1828799572        5.7549900621
  H        15.3540143114        9.0649703282        7.4084263333
  C        14.4753177925       10.7675539633        6.2581537032
  S        17.1683874004       14.3987774330        6.7029875687
  C        17.6324883941       13.4873595524        5.2450354607
  H        17.9701041611       11.3703809518        4.8470208433
  C        15.6729178416       13.1666359142        9.7714230250
  H        16.0458299393        9.5031046171        9.7321077812
  C        15.3678395094       11.1620909666       10.8554352538
  H        14.7993430337       11.7703605950        5.8606737439
  H        13.7791885582       10.9852801241        7.0446594307
  C        13.5832232520       10.2404827800        5.0841814398
  C        18.1037434478       14.1443979424        3.9102898865
  C        15.3314523899       12.5053910979       10.9155812878
  H        15.5217036643       14.2568744635        9.7027918992
  C        14.8064427768       10.8374144017       12.1146693045
  H        12.7516225442       10.8631227087        5.0155368844
  H        13.2604122732        9.2227798963        5.2677661509
  C        14.1415276874       10.3898687359        3.6691368822
  C        18.0065752406       15.5008371318        3.6335822604
  C        18.6319080558       13.2298263540        2.7857632002
  C        14.9408887522       13.2894287780       12.1504490748
  C        14.6278308757       11.9000160274       12.9055825129
  S        14.5129917257        9.2864161877       12.8625295024
  H        14.8762453308        9.6358347147        3.4136057885
  H        14.7539825679       11.3138652293        3.4245673873
  C        13.0206813694        9.9941285442        2.6587627991
  N        17.7228114605       16.5493257174        4.5935558111
  C        18.2831947221       16.0288716511        2.3704078891
  C        18.9697929345       13.8323379969        1.5464271366
  H        18.6828887775       12.0896112835        2.9241059715
  C        13.6526347124       14.0617333497       12.0682524076
  C        16.1263634061       14.1363688703       12.7386080786
  C        14.3100833961       11.5471059939       14.2259581665
  C        14.1463869871       10.1813679158       14.3340845797
  H        12.5790662183        9.0752770853        3.0036745741
  H        12.2823768518       10.7767694234        2.9287443632
  C        13.3630437483       10.1164929770        1.1812284470
  S        17.7208848857       17.9799037668        3.7438853532
  N        18.1481871184       17.4338579894        2.2645198219
  C        18.7334560989       15.2831500984        1.2974151190
  H        19.4112083611       13.3153974065        0.7171896900
  H        13.7444960443       14.9435685854       11.4628859839
  H        13.3096257442       14.5016287351       13.0149674400
  C        12.4409562941       13.2981786346       11.5612200115
  H        16.3727446737       14.9064909619       12.0099290160
  H        15.7001544927       14.6422404806       13.6331491807
  C        17.4100273457       13.3088268805       13.2667512500
  H        14.0618875176       12.3464237157       14.8913256836
  C        13.7430857241        9.4381401057       15.5866420314
  H        14.3807964558        9.7500074277        1.0108397546
  H        13.3986183290       11.2203493203        1.0145151958
  C        12.4522044621        9.4461864905        0.1720454907
  C        19.0441757290       15.9859247880        0.0619745093
  H        12.6757710425       12.6085747198       10.7725569041
  H        11.9900632441       12.5245460691       12.2126537830
  C        11.3317961238       14.0852438396       11.0303155204
  H        17.9301590201       12.9136803776       12.3884344472
  H        17.2292970226       12.3782200746       13.7698059738
  C        18.3841097185       14.2048104126       13.9912674724
  C        13.6756675376        8.0350107599       15.8243251661
  C        13.4916813810       10.2860476308       16.7981583419
  H        12.5466033067        8.3829510562        0.1859058405
  H        11.4513406705        9.6056493042        0.6512201368
  C        12.6712218614        9.9745972619       -1.2394635294
  H        18.8259471893       17.0280761012       -0.0215595219
  C        19.4022771605       15.5901010321       -1.2073971460
  H        11.6070697142       14.8502825409       10.3965959203
  H        10.9246589669       14.6253392603       11.9217162058
  C        10.1198476021       13.4500911103       10.3638857340
  H        18.6034906625       15.2701719339       13.5206336769
  H        17.7971241423       14.4624650059       14.8891109531
  C        19.6882988452       13.4982522180       14.5624007677
  N        13.8855992501        7.0287411374       14.8902320325
  C        13.2817607640        7.5095431760       17.0121478743
  C        13.1781340079        9.6977170083       18.0103061966
  H        13.4857981057       11.3628301807       16.8058340852
  H        13.7618048918        9.8379020518       -1.4170947573
  H        12.5543546555       11.0037112088       -1.3373063595
  H        12.1222711452        9.4833769256       -2.0732883616
  S        19.6364204241       14.0516399491       -1.8382504100
  C        19.5237622720       16.6461990848       -2.2276386930
  H        10.4711971423       12.7712758849        9.6460434349
  H         9.5682051298       12.8146399987       11.0571294672
  C         9.1871681349       14.3897971209        9.7652750146
  H        19.9654701515       12.5916250046       14.0466081824
  H        19.4244170420       13.2092041992       15.6468473692
  C        20.9380014938       14.3216087657       14.5729716054
  S        13.7983362113        5.5817074662       15.5835916453
  N        13.2009671857        6.0843366619       16.9991155595
  C        12.9079101807        8.2788311072       18.0946753126
  H        12.9661194452       10.3488363950       18.8088837782
  C        19.7650949988       14.7613143040       -3.4378385102
  N        19.6439072605       16.1519618663       -3.4386744955
  O        19.3197383672       17.8190479959       -1.9315695527
  H         8.9015724126       15.1403431277       10.4252180513
  H         9.6659482379       14.9730640671        8.9506208662
  C         7.9446621928       13.5982128487        9.2579978166
  H        21.7711529486       13.6865700848       14.6715414630
  H        21.0654667585       14.5922215479       13.5660376271
  C        20.9855061021       15.5468180060       15.5285584175
  C        12.5629265862        7.6190340820       19.2956365856
  S        20.0364832762       13.8328281157       -4.8445493601
  C        19.6961939613       17.0840989895       -4.5594540632
  H         7.9475295023       13.1934339968        8.1748929461
  H         7.7484756830       12.6597527040        9.8295431388
  C         6.7270948742       14.5267098907        9.1295907025
  H        21.2372275859       15.3087020579       16.5801452727
  H        19.9088258844       15.8754260396       15.7454906723
  C        21.7845732496       16.7315458793       14.9820380922
  H        12.9691973079        6.6378288128       19.4625347516
  C        11.8541413111        8.0657642055       20.3704819449
  H        20.3762564642       16.6649701224       -5.2615626690
  H        20.0470041414       18.0432878698       -4.2950795620
  C        18.4144644447       17.3215091684       -5.1462282193
  H         6.1583190959       13.9305978131        8.4051994146
  H         6.9649807587       15.3729332241        8.5791257444
  C         6.0935070721       14.8213920491       10.4515785480
  H        22.0284045528       17.4321864516       15.7807618779
  H        22.6765452718       16.4701040703       14.4394408210
  C        20.9967939725       17.6215910680       14.1171452129
  S        11.3555397010        9.7300241622       20.7263837730
  C        11.7490898058        7.1497298952       21.5686955907
  H        18.6698529278       17.7687808166       -6.1176619539
  H        17.6217034955       17.8928490958       -4.5883093477
  H        17.8900115985       16.3935162242       -5.3575025754
  H         6.4077798277       15.6915153076       10.9879374412
  H         5.0923491508       14.8222562401       10.2591107436
  H         6.1860494611       13.9696831863       11.1192593165
  H        20.7842021083       18.4621558328       14.5847435592
  H        21.6252302690       18.0477248608       13.2363676063
  H        20.1266232141       17.2599198568       13.5427142793
  C        10.8951785733        8.9939617581       22.2894496121
  N        11.2060337871        7.7303121320       22.5939127423
  O        12.1996354347        6.0532442491       21.5423332405
  S        10.2832953370       10.0077085556       23.5307201831
  C        11.1376569960        7.0817070414       23.9483971480
  H        11.0389493588        6.0083415814       23.8328166450
  H        10.2666669854        7.2907533910       24.4237768105
  C        12.4244791539        7.2736148303       24.8272703969
  H        12.3135961901        8.2764276538       25.3790648248
  H        13.3985363275        7.1391712553       24.2045658969
  H        12.5372271927        6.4407315737       25.5226682630
