352
 i =    25000, time =    25000.000, E =        25.2871986728
  H        12.2493929572        6.8875794773       32.5941647362
  C        11.6604739356        5.9207661349       32.5556164968
  H        12.4226862023        5.1152568567       32.3075580542
  C        10.6362582945        5.5954627659       31.4865200467
  C        11.1530658036        5.3881609413       33.8823337397
  C        11.0674988613        6.0566353788       30.1142220821
  H        10.4185923666        4.5631405985       31.5935961009
  H         9.6723779995        6.1157907701       31.6604005920
  H        10.6737366961        6.1723065179       34.5075243729
  H        10.4828845371        4.6012191805       33.6771760118
  H        11.8581538488        5.0237053896       34.5756429935
  C         9.9428371334        6.0184607435       29.0569111825
  H        12.0300624523        5.6368499400       29.8152682028
  H        11.1680747576        7.1287300367       30.1472293669
  C        10.5362743200        6.0488804466       27.5625988578
  H         9.3528099010        5.0481612856       29.1579992770
  H         9.2685050674        6.8719029779       29.0867994821
  C         9.5825062706        5.1269145316       26.6546791361
  H        11.5599367382        5.7917418898       27.5008432066
  H        10.2620194866        7.0222866035       27.1024449596
  C         8.3831816345        6.0554450494       26.1737725134
  H        10.0896847099        4.6635003704       25.8906983002
  H         9.1076772376        4.3096713526       27.2379224618
  C         7.2936628781        5.3432479389       25.4298117106
  H         7.9845616236        6.4664521108       27.1244536960
  H         8.8025282509        6.8385384659       25.5556042171
  C         6.9565285155        3.9591341972       26.1647401169
  C         7.7067095330        4.5553926934       24.1902526738
  C         6.1225827865        6.2983718055       25.3133133964
  C         7.2499808693        2.8800080934       25.3431212201
  C         6.4952475024        3.5686952646       27.3918368648
  C         7.7243544606        3.2079513202       24.1120977861
  C         8.2305180269        5.1480061538       23.0619934764
  H         6.3509900572        6.9381460791       24.4441426598
  H         6.0235820933        6.9585126837       26.1887638858
  C         4.7158299555        5.5335241518       25.0714915016
  S         6.9583459857        1.4322673077       26.1492433625
  C         6.4264795497        2.2353859141       27.5470102620
  H         6.1900015095        4.3504078220       28.0801099634
  C         8.0232923274        2.5792112813       22.9356032835
  H         8.1866668163        6.2243305100       23.1074381418
  C         8.6407217111        4.5248115269       21.9059932614
  H         4.6634472252        4.9417488636       24.1167107023
  H         4.5439885194        4.7757059341       25.8418816274
  C         3.4844990857        6.6159446168       25.1407325989
  C         5.9211022824        1.5403570814       28.7548402174
  C         8.4875284928        3.1926266819       21.7479484280
  H         7.9045973245        1.5701341053       22.7856321691
  C         8.9853213720        4.8910474104       20.6295088870
  H         2.7049718187        6.1806281916       24.5088693323
  H         3.7000229992        7.6277531558       24.7895641559
  C         2.8819438072        6.7337985743       26.5208334294
  C         5.8759779003        0.1268301112       28.9738931224
  C         5.4967249129        2.3158802279       29.9762272316
  C         8.8128947988        2.4366967638       20.4986308464
  C         9.0602502370        3.7804190627       19.8342477581
  S         9.2839540929        6.3463870700       19.8144233004
  H         2.2136258821        7.6250541150       26.5926869902
  H         3.7623736349        6.8830477457       27.0925896674
  C         2.2337635063        5.4109359268       26.9835769285
  N         6.3850564659       -0.8182456477       28.0355904806
  C         5.5651764464       -0.4630495824       30.1741858931
  C         5.0581250688        1.7334091027       31.1436981004
  H         5.3967574303        3.3751720180       29.8824030113
  C         7.6216666734        1.6866147917       19.7879129710
  C        10.1044996109        1.6065525738       20.7369635725
  C         9.5340827758        4.1278100995       18.5694968441
  C         9.6389868654        5.4482507298       18.3558234168
  H         1.4901571002        5.0819011654       26.2162826750
  H         2.9200912922        4.5600562932       27.2119933065
  C         1.5140025675        5.7000994928       28.3377116658
  S         6.0965191126       -2.2805187234       28.6010842379
  N         5.6594843048       -1.8571358065       30.1587599450
  C         5.1599940451        0.2636627761       31.3700901501
  H         4.6818416714        2.4116336241       31.9019477402
  H         7.3887827564        0.7800859334       20.3824898614
  H         8.0263959715        1.3459674633       18.8079116751
  C         6.2755898298        2.4000761184       19.6591436391
  H        10.3444094036        1.2847050535       19.7363353332
  H         9.8349885663        0.7231330516       21.3085631992
  C        11.3238967289        2.4122960917       21.3364032742
  H         9.6777004696        3.2846884193       17.8887663818
  C        10.0222069711        6.1487010393       17.0792873732
  H         0.6806386755        5.0174714009       28.4970086381
  H         1.0289564769        6.6742381543       28.3019324841
  C         2.3088234858        5.5864941692       29.5512753323
  C         4.9691387491       -0.4231684622       32.6364019810
  H         6.3138715042        3.3489208623       19.0503548574
  H         5.9554162711        2.7927243465       20.6122133084
  C         5.2882053134        1.4936604330       18.9197491695
  H        11.0115890595        2.7916650849       22.3165772035
  H        11.5616666502        3.2786540894       20.6908164211
  C        12.5146607697        1.4895478638       21.3786466534
  C        10.2287194796        7.4995154432       16.9730415883
  C        10.0823682699        5.3861017358       15.8056914347
  H         2.5470344320        4.5028033858       29.6714067764
  H         3.2753211999        6.0457901802       29.4616773376
  C         1.5132965322        6.0275243908       30.6652360983
  H         5.2827131404       -1.4466835491       32.4886669035
  C         4.7005642509        0.0174854225       33.9195517779
  H         5.0537539997        0.5838156335       19.3973768822
  H         5.7742379116        1.1588426650       17.9127796942
  C         3.9043031650        2.2039942703       18.4818348654
  H        12.6164693648        1.0245798410       22.3479325994
  H        12.3907216532        0.7192749437       20.7005812913
  C        13.8867445718        2.1968005737       21.1218055639
  N         9.9505207996        8.4050941491       17.9597084025
  C        10.5775424266        8.1569469880       15.7892491052
  C        10.4639793135        5.9542814643       14.5645612094
  H         9.6351936779        4.4138464733       15.8485391164
  H         0.6423060789        6.6254119009       30.4147539949
  H         1.2635574775        5.0927620952       31.1757070476
  H         1.9716941624        6.6211707650       31.4681079606
  S         4.2454275963        1.6198137221       34.4460223723
  C         4.7050626001       -0.9611546956       34.9769959760
  H         3.6701303438        3.0314622411       19.1243883043
  H         4.0424011374        2.5484786516       17.4468979480
  C         2.7867234300        1.1549034290       18.3521793424
  H        13.8178278954        3.0471756148       20.4512040685
  H        14.5283385393        1.5257504318       20.6112337921
  C        14.4746954950        2.5781537404       22.4896061375
  S        10.1289039160        9.8815311321       17.3236060293
  N        10.5791813837        9.5489005342       15.8246579461
  C        10.7981806651        7.3997746372       14.6101697354
  H        10.4993857368        5.3247920787       13.7148862492
  C         4.0413479496        0.8769272281       36.0882381445
  N         4.1889303546       -0.4113050418       36.0588576137
  O         4.8868970530       -2.1249602649       34.7058168143
  H         1.8605813638        1.6316917178       18.5276853074
  H         2.7945408247        0.3136237706       19.0766067725
  C         2.8590887195        0.4762223779       16.9868250181
  H        15.0220403900        3.4897287211       22.4117883920
  H        13.5950751575        2.8403022241       23.0971974521
  C        15.3303853458        1.5187074760       23.1857601069
  C        11.1375465215        8.1320285396       13.4705879190
  S         3.7078456407        1.7270748845       37.5470504393
  C         4.1577876468       -1.2246359254       37.2810564405
  H         2.3278306299        1.0499484382       16.2468783143
  H         3.9325398161        0.5226704463       16.7319745264
  C         2.3111573855       -0.9304038156       16.8455932312
  H        15.3772231368        0.6931644746       22.5438706200
  H        14.7150324671        1.2576460825       24.0271631291
  C        16.8304103273        1.9936492219       23.5646003407
  H        10.8779300936        9.1888551119       13.5402176482
  C        11.7053660943        7.8760744551       12.2650889183
  H         3.4577930655       -0.8471241579       38.0284760972
  H         3.7242177615       -2.1215484538       36.8722562764
  C         5.5358507556       -1.4965562634       37.9076769747
  H         2.2854992813       -1.1938155431       15.7741484949
  H         1.2732247692       -0.8644899623       17.0153751004
  C         3.1554355444       -1.9629952500       17.6306259098
  H        16.7369556879        2.9831555313       23.9687347034
  H        17.1890340264        1.4680038462       24.4116042784
  C        17.7571849703        1.9645274568       22.3285497511
  S        12.4736783160        6.4398606842       11.8283533585
  C        11.5849039558        8.9568526515       11.2227169070
  H         5.7424696138       -0.9606555459       38.8377399385
  H         5.6390121978       -2.5364371179       38.1519963782
  H         6.2970041373       -1.2187695096       37.1432955509
  H         4.2840715820       -1.9274358819       17.5325245601
  H         2.7119028761       -2.9341250377       17.5094644840
  H         3.0220916926       -1.7469316966       18.6117132086
  H        18.7935302259        2.3184322708       22.6109726028
  H        17.2721360984        2.5062767505       21.4722352067
  H        17.8207877151        0.9095410818       22.0339340389
  C        12.6212141295        7.1450593722       10.2358357038
  N        11.9802429192        8.3157161818       10.0801726355
  O        11.0195075452       10.0306148709       11.3291748787
  S        13.6309844239        6.4032245883        8.9828350247
  C        12.1344741269        9.0747390967        8.8534523355
  H        12.8581533237        9.8807571284        9.0236895777
  H        12.5166781966        8.5094619092        8.0125618253
  C        10.7440415232        9.6454895330        8.4060329290
  H         9.9568534314        9.1900444705        8.9574784065
  H        10.6124794669       10.7361689232        8.5812369643
  H        10.5867574217        9.3394293233        7.3925695693
  H        21.5634889217       11.3386102656        3.5697542128
  C        21.8816615928       10.3124977396        3.6327576520
  H        20.9700208857        9.7605202783        3.8381045441
  C        22.7104866309       10.2270999465        4.9257657336
  C        22.7618302986        9.8303497013        2.4496665966
  C        21.7870687851       10.5945205675        6.1864584057
  H        23.1690816756        9.2087195431        5.0989122897
  H        23.5574079206       10.9178356847        4.9180551785
  H        22.1161793270        9.3802632897        1.7320010897
  H        23.5262036477        9.0796984540        2.7233953297
  H        23.3161351999       10.6944518443        2.0144687985
  C        20.9542569040        9.4055963693        6.5609791442
  H        22.5402789042       10.8318440843        6.9097996333
  H        21.2197313871       11.4939671917        6.0655006019
  C        20.2293840055        9.4343676370        7.8648616004
  H        21.7120403777        8.5855346501        6.5872437711
  H        20.2810172490        9.0978675195        5.8424407696
  C        19.0171480545       10.4123219822        7.9250318043
  H        20.9280089228        9.6864646597        8.6839047211
  H        19.8021424244        8.4230416932        8.0188999937
  C        17.7067851411        9.8087225669        7.2881848204
  H        18.9067191563       10.7185276919        8.9770546107
  H        19.1733118317       11.3884829099        7.4556863462
  C        16.4039250873       10.6654700604        7.1833595152
  H        17.4929042031        8.8905911400        7.8075154467
  H        17.9557720507        9.4694148665        6.3166286837
  C        16.6587272922       12.0446587332        6.4514542742
  C        16.0172973528       11.4700354780        8.4153791446
  C        15.1927932848        9.8788697201        6.5982225664
  C        16.3436586060       13.1749517264        7.1889606798
  C        17.0881661334       12.3920557509        5.1240141678
  C        15.9477077955       12.8096465128        8.4731575369
  C        15.6913688449       10.8019572020        9.5754744060
  H        15.5976389677        9.3072176881        5.8225675243
  H        14.8406273654        9.0382153085        7.2214743613
  C        14.0533615276       10.7174267688        6.0964699166
  S        16.5816734942       14.6259170081        6.2548131731
  C        17.1911544240       13.7394564043        4.9161129694
  H        17.3868685056       11.5439056846        4.4992558824
  C        15.5795998069       13.4160004974        9.6400097260
  H        15.5884476614        9.7078959524        9.4353873436
  C        15.4498264468       11.4014465958       10.7491428008
  H        14.3671585375       11.6898841546        5.7388522166
  H        13.4218914229       10.8634288226        6.9689374350
  C        13.3094765952       10.0327787819        5.0560290776
  C        17.6987834943       14.3649733042        3.6346988529
  C        15.3277478867       12.7405334121       10.8573508758
  H        15.5310635258       14.4558747217        9.7049584522
  C        14.9459508467       11.0137135683       11.9984309078
  H        12.2702682753       10.3038562376        5.1825723485
  H        13.3159436016        8.9818953011        5.1941649145
  C        13.7908339524       10.4658901840        3.6278841692
  C        17.7956206087       15.7144224530        3.3732762903
  C        18.0039495331       13.4668774603        2.4882345528
  C        14.9362917557       13.4554314162       12.1685084335
  C        14.7522182334       12.0609237937       12.8350388402
  S        14.6258466936        9.4936128669       12.6937680453
  H        14.8421822015       10.4818052119        3.6506154282
  H        13.3729274319       11.4883000159        3.4526233374
  C        13.1875454775        9.5452862396        2.5185219502
  N        17.6654640300       16.7166888290        4.3658489602
  C        18.2479178702       16.2627841536        2.1414909539
  C        18.2667926278       13.9857576294        1.2306183699
  H        17.7289779571       12.4790795372        2.5408350254
  C        13.6574800220       14.1707084718       11.8827476652
  C        16.0896979391       14.4353873797       12.7745616642
  C        14.4465472497       11.6345874359       14.1628967808
  C        14.3474686779       10.2649067224       14.2307484140
  H        13.9832708680        8.9294934620        2.1384544324
  H        12.4379451523        8.9995641782        3.0195596967
  C        12.5656816073       10.3702043083        1.4667350957
  S        17.7181485384       18.1315997709        3.6191905209
  N        18.2406150284       17.6412978941        2.0909508781
  C        18.4951169424       15.4763198091        1.0038798827
  H        18.2944173261       13.2837890514        0.4529672522
  H        13.9904403068       14.9726744740       11.3139301750
  H        13.3488427287       14.5478771868       12.8361939789
  C        12.4367791423       13.3256542353       11.5017499877
  H        16.3710671170       15.1787854041       12.0391061125
  H        15.7054561170       15.0307540504       13.6260630894
  C        17.2737799667       13.6943256340       13.4301479961
  H        14.3163267570       12.4078744786       14.9430549266
  C        14.1675282592        9.4553162544       15.4767300562
  H        13.3994767047       11.0031193583        1.1386052506
  H        11.8489729478       10.9533681758        1.9368538711
  C        12.0176423122        9.5859952151        0.2476703918
  C        18.7883726675       16.0830886738       -0.2541713557
  H        12.8199667644       12.6933333052       10.6409678895
  H        12.1313020047       12.5613775522       12.2324385084
  C        11.2209105612       14.1636347720       11.1749131072
  H        17.4989473499       12.8481386336       12.7996329603
  H        16.9446447261       13.2848900019       14.4059389246
  C        18.4185949651       14.6871003246       13.3956785010
  C        14.0423450643        8.0621325273       15.5733839646
  C        13.8759617315       10.1903158493       16.7525947393
  H        12.7417889819        8.7942293287        0.1925450762
  H        11.0419199240        9.2646497387        0.4484358200
  C        12.1444755334       10.3676431715       -1.0729914759
  H        18.9224665866       17.1608516761       -0.2663240050
  C        19.0716930719       15.5205556064       -1.4781541448
  H        11.5047119724       14.8427141911       10.3279032720
  H        10.8918590548       14.6925617717       12.0076089334
  C        10.1330360530       13.2204725382       10.6356676165
  H        18.5220903080       14.8555586057       12.3024311893
  H        17.9593683766       15.5739675120       13.8150015127
  C        19.6555968903       14.1660434207       14.0577601025
  N        14.2252064796        7.1646783521       14.4555444764
  C        13.6873829616        7.4313088749       16.7200568605
  C        13.4994502022        9.5556192646       17.9223653276
  H        13.9042514939       11.2686315621       16.7472205623
  H        11.6193183107       11.3155362946       -1.1211747402
  H        11.7983065888        9.7346349332       -1.9004225758
  H        13.1604747219       10.7623517077       -1.2358253328
  S        19.1006509136       13.8553530640       -1.9888207988
  C        19.3179729705       16.4730114033       -2.5794639385
  H        10.5212735982       12.6835026535        9.7398866050
  H         9.9226198152       12.4657961048       11.3620260100
  C         8.9279450058       13.9731685644       10.1592495161
  H        19.8908352163       13.3817566536       13.3830257042
  H        19.5320768574       13.6055769137       15.0369274154
  C        20.7709662707       15.2554006171       14.0254332345
  S        13.9054611881        5.6103650027       14.9962665415
  N        13.5849762815        6.0382720231       16.5408303344
  C        13.3826003731        8.1000367212       17.9724274310
  H        13.3036865619       10.2075761920       18.7668469126
  C        19.2873502179       14.3913465846       -3.5846949420
  N        19.5248421249       15.7146502778       -3.6766842990
  O        19.3768575330       17.7489973340       -2.4849363756
  H         8.7945053276       14.7229066147       10.9154114956
  H         9.1604871490       14.5021854297        9.2830586925
  C         7.7919277686       12.9922028071        9.8713377485
  H        21.7703460915       14.7402617260       14.1295120890
  H        20.7055018465       15.7104868235       13.0720315872
  C        20.4928731737       16.3426694124       15.1640569912
  C        12.9238469644        7.3752046632       19.1254263736
  S        19.8032593201       13.4668608111       -4.9736428350
  C        19.5493319406       16.4508892800       -4.9887908709
  H         8.1363997406       12.3378908770        9.0120799924
  H         7.5806179627       12.2692465504       10.6355626500
  C         6.6572069854       13.7225636072        9.2289431062
  H        20.9449075665       16.0910304757       16.1216747236
  H        19.4371333996       16.2911191817       15.3527162469
  C        20.9313799411       17.7493667085       14.6491703006
  H        13.0402861476        6.3059447785       18.9436407443
  C        12.4921865174        7.7084197558       20.3825472827
  H        20.2170890226       16.0444368535       -5.8109607132
  H        19.9346170714       17.4232769046       -4.9303831130
  C        18.1197472219       16.7489008544       -5.5004703437
  H         6.1139809257       12.9574710719        8.6032498981
  H         6.9198840402       14.6137453021        8.6439747393
  C         5.6571457491       14.1306333240       10.2705794607
  H        20.5453725381       17.9764280817       13.6365708266
  H        20.3080279566       18.3817271736       15.2473746499
  C        22.5269040880       17.8029250144       14.7211499489
  S        12.1594565452        9.2803582859       20.9130607578
  C        12.3453118374        6.5782821940       21.3652761422
  H        18.0749149919       17.3638097590       -6.4298788474
  H        17.4994619628       17.2701063660       -4.7616787993
  H        17.6488229488       15.7763003628       -5.7326762692
  H         6.0530461509       15.0634122269       10.7617209394
  H         4.7186891054       14.5245807916        9.8214519413
  H         5.4616919070       13.3484472958       10.9545316120
  H        22.7948005064       18.8228752563       14.8691124716
  H        22.9768702353       17.1796600246       15.5453825871
  H        23.0613240667       17.3639535729       13.8934433240
  C        11.6685601148        8.5236385121       22.4221564949
  N        11.8142432783        7.1748982192       22.4954872546
  O        12.7128650317        5.4122109209       21.1859518648
  S        11.1954572806        9.3580063679       23.8759657574
  C        11.5867376860        6.3566025555       23.6728809937
  H        11.4086698492        5.3159941198       23.3494983673
  H        10.6660884836        6.8935479837       24.0652718849
  C        12.8858483059        6.4887310744       24.5281969394
  H        13.4153823852        7.4196463221       24.3656727065
  H        13.5078150935        5.6057036096       24.5259069312
  H        12.4349888731        6.6140844997       25.4690664235
