352
 i =    35200, time =    35200.000, E =        24.5112378424
  H        11.3250695150        7.3970143928       32.8254153297
  C        11.3223943367        6.3564745050       32.6146257898
  H        12.3580563707        6.1648718027       32.3578311503
  C        10.4441227348        5.9539357310       31.3656659901
  C        10.8972537875        5.6637650361       33.9397147241
  C        11.1181823028        6.1037348881       30.0084609040
  H        10.2765694570        4.8665716344       31.3814646864
  H         9.3853848171        6.3059707171       31.3587323915
  H        11.7854824112        5.7936553723       34.6087427234
  H         9.9896872764        6.0290574993       34.3977323491
  H        10.8353480002        4.5601070702       33.8618455647
  C        10.0897155362        6.0714401751       28.9027749679
  H        11.8568347730        5.2789896450       29.9459420687
  H        11.7261607637        7.0177827807       29.9382932438
  C        10.6083737299        5.7142977538       27.4948477642
  H         9.4331351932        5.3309405449       29.2550043229
  H         9.6922419623        7.0993765779       28.8628833227
  C         9.4870169965        4.9708477806       26.7053337498
  H        11.4002474580        4.9810287299       27.5626356649
  H        10.8741105593        6.7039833746       27.0383894432
  C         8.3679828482        5.8793639184       26.1772373847
  H         9.8677951403        4.3903013089       25.8800912543
  H         9.1120333285        4.2467880202       27.4225310630
  C         7.2739215791        5.1233190695       25.3678465030
  H         7.8829877318        6.4919632437       26.9370168357
  H         8.9894923278        6.5179412027       25.5449696744
  C         6.9593932778        3.7285603301       26.0308626001
  C         7.7940506256        4.4610000903       24.1384254999
  C         5.7671918828        5.8190334773       25.2612975666
  C         7.2889926471        2.6514985750       25.1631175840
  C         6.4858819578        3.3069497599       27.2432397479
  C         7.7677229693        3.1424145603       23.9677849097
  C         8.3123015456        5.1749764357       23.0101013510
  H         5.8929167056        6.5465425055       24.5321192783
  H         5.5954485936        6.2782614765       26.2373370603
  C         4.5755715222        4.9958872738       24.7167765385
  S         6.9879057777        1.1337849060       25.9195900694
  C         6.4991262509        1.9581064169       27.3975944219
  H         6.0953543920        3.9995464554       27.9669715146
  C         8.2122300574        2.5387605568       22.8279346255
  H         8.4217505163        6.2277732648       22.9940061136
  C         8.7070116040        4.5902734649       21.8897889150
  H         4.7779911046        4.6945518508       23.6744386532
  H         4.5038837770        4.0481254870       25.2018082240
  C         3.2304569485        5.7859709054       24.7061927042
  C         6.0437686648        1.2526080734       28.6503848681
  C         8.6588971266        3.2825254601       21.7816257698
  H         8.1191848257        1.4152902597       22.7374751042
  C         9.1821681844        5.0256516855       20.6888861377
  H         2.4852949157        5.1235604691       24.2306558602
  H         3.1996166665        6.6773602021       23.9583067236
  C         2.6114013118        6.0864806738       26.0763143539
  C         6.0126949331       -0.1664230098       28.8374421938
  C         5.4405100095        2.0296038270       29.7825216643
  C         9.1675315378        2.5887015403       20.5910418047
  C         9.4354469428        3.9408160842       19.8959532175
  S         9.4555413539        6.5365261772       19.9410541443
  H         1.7043990886        6.6338390569       25.9069718647
  H         3.2276691007        6.6763942473       26.7172503062
  C         2.2474248368        4.7569842053       26.7681043731
  N         6.4586839541       -1.1357703837       27.9149768792
  C         5.7270966809       -0.7729434334       30.0595830892
  C         5.0020516975        1.3610336891       30.9246360761
  H         5.2060815783        3.1121469323       29.6900478429
  C         8.0914446313        1.7968169749       19.8395765066
  C        10.5166890629        1.7953189079       20.8476929279
  C         9.9786877223        4.3031105094       18.6465363790
  C         9.9363449248        5.6519210193       18.4795560959
  H         1.7704380625        4.0762949007       26.0562054876
  H         3.0889509977        4.1678748723       27.2306222662
  C         1.1629304658        4.8892585149       27.9146747294
  S         6.5243224550       -2.5872164555       28.6589511584
  N         5.9930616286       -2.1297475711       30.1358943012
  C         5.1929777725       -0.0569202049       31.1612481296
  H         4.6081265708        1.9448663552       31.6582711963
  H         8.0000197531        0.8238015973       20.2507716000
  H         8.4384138617        1.5621484054       18.9061756825
  C         6.6944534695        2.5451272327       19.7517541399
  H        10.6779580958        1.3318100288       19.9083427222
  H        10.3299779919        1.0116659993       21.5876304278
  C        11.7768315592        2.5602609455       21.2864656463
  H        10.2225829305        3.5363334915       17.9193820701
  C        10.1697714405        6.4631817416       17.2175824763
  H         0.9246692833        3.8809596841       28.2164880721
  H         0.2208115201        5.4327331281       27.5776338709
  C         1.6079906504        5.7324084665       29.1829174795
  C         4.9246342576       -0.7002489182       32.3992384901
  H         6.8361714915        3.6242324646       19.8382010567
  H         6.0009159804        2.2776284785       20.5757538753
  C         5.9603138063        2.1649170395       18.4141986970
  H        11.5902323920        2.9293937141       22.2889245363
  H        11.9281900268        3.4358280501       20.6417045270
  C        13.0841941380        1.7659450332       21.1682643383
  C        10.3074947997        7.8525233151       17.1344469844
  C        10.3728933034        5.6719479344       15.9356024938
  H         2.3473694042        6.4429326678       28.9211061997
  H         0.8532905110        6.3310533998       29.5949680445
  C         2.3184144195        4.9095573251       30.2519684929
  H         4.8108882333       -1.7891102495       32.3460644116
  C         4.6743156369       -0.2135371230       33.6760370695
  H         6.1573263107        1.1413040517       18.2227104561
  H         6.5440417828        2.6831214123       17.6601732308
  C         4.4272544830        2.6034020517       18.2879838312
  H        13.0981977589        1.0330171246       21.9564678658
  H        13.1046212860        1.3321462103       20.2356378656
  C        14.2840722822        2.5972771276       21.3638180640
  N        10.0540357475        8.7277390311       18.1891279988
  C        10.6687435287        8.4605134763       15.9431564174
  C        10.7709587337        6.3565022710       14.7913348926
  H        10.1632758969        4.6085082550       15.9584285953
  H         2.8277346172        5.4507853893       31.0144678153
  H         1.5855036088        4.1681006369       30.6855359500
  H         3.0685796072        4.3079745094       29.7587912636
  S         4.3143948361        1.4319733467       34.1776740542
  C         4.6626015708       -1.2199430071       34.7559296132
  H         4.2847277456        3.5252414622       18.7943635348
  H         4.1347399554        2.8879788700       17.2280727195
  C         3.2989374793        1.6391725996       18.7559638821
  H        14.2541908541        3.4980230855       20.7110256994
  H        15.1312525808        2.0435203911       20.9325854779
  C        14.6539121580        3.0573070894       22.7815997893
  S        10.0618978005       10.2472862866       17.5858772872
  N        10.7323437918        9.8697712095       16.1585424962
  C        10.9738255645        7.7637470434       14.8134137366
  H        10.9014930220        5.6861237052       13.9229352379
  C         4.1661882042        0.7029002824       35.7793986241
  N         4.3899001992       -0.6314181816       35.8641386942
  O         4.8435047153       -2.4507493932       34.5698505764
  H         2.2698203982        2.0346998499       18.7239448238
  H         3.6288096568        1.2942256783       19.7867970509
  C         3.2542964020        0.4948489715       17.7919778480
  H        15.3123410742        3.9242746339       22.5625644731
  H        13.7831029700        3.3754932657       23.4363700619
  C        15.4232737397        1.9832128420       23.5581138191
  C        11.2818193436        8.4388610693       13.6474455381
  S         3.6957510635        1.4878729489       37.2214612590
  C         4.3746472170       -1.4790748890       37.1361054013
  H         3.0609051307        0.8405009172       16.7736840741
  H         4.1840135919       -0.0332704965       17.8492702756
  C         2.1755888702       -0.4652726365       18.2100082484
  H        15.4476530969        1.0367212292       22.9790683532
  H        14.8956971957        1.8387193957       24.5379671712
  C        16.7698471657        2.4349963022       23.9307232403
  H        10.9870081127        9.4928435770       13.6318062412
  C        11.8938258416        8.1300888728       12.4154401439
  H         3.5027384250       -1.1983230863       37.6987604055
  H         4.0878820549       -2.5096323820       36.9616267105
  C         5.7159381344       -1.3624620761       37.8573796491
  H         1.2316420185       -0.0544695943       18.4338185146
  H         2.5843212422       -0.9323000624       19.0937261205
  C         1.9157029216       -1.6320563750       17.2970452679
  H        16.7098488075        3.3927107660       24.3695757106
  H        17.1904485385        1.7657558932       24.7047230713
  C        17.7236429511        2.4392307101       22.7086341104
  S        12.5442801055        6.6499535178       12.0274441287
  C        12.0509048277        9.2256962432       11.4362008693
  H         5.7155778146       -2.1170458117       38.6616303034
  H         6.5647771456       -1.5255536197       37.2202803448
  H         5.9551417048       -0.4466175272       38.3839119630
  H         1.1243189664       -2.2730347912       17.5951931227
  H         2.8824308851       -2.0968118527       17.0328752010
  H         1.5361768750       -1.1492181786       16.3841733477
  H        18.8139788231        2.1995043915       22.8626723747
  H        17.5355918296        3.3891136806       22.2700347844
  H        17.3900720870        1.7515824103       21.9464682761
  C        12.7973334757        7.3952503768       10.4266433692
  N        12.5899538740        8.7205799395       10.3042386700
  O        11.4962179188       10.3641449038       11.5379664221
  S        13.5475628156        6.6352176362        9.0230423447
  C        12.7878918856        9.5387519315        9.0953706599
  H        13.0718919718       10.5731446425        9.4341823769
  H        13.6224186251        9.2017158793        8.4683324710
  C        11.4805963635        9.4762713216        8.3553082829
  H        10.9386909483        8.5908463431        8.4534185729
  H        10.8218278512       10.1883717006        8.7654509905
  H        11.4897406193        9.6393316758        7.3037028093
  H        21.1011046984       11.5511839626        4.2599129802
  C        21.8605300452       10.7669719971        4.0984883072
  H        21.0283055456       10.0583156339        4.1985887890
  C        22.8948787331       10.7601296599        5.2600485386
  C        22.4732506815       10.4340069996        2.8197216504
  C        22.2181380799       11.0295359069        6.5843697304
  H        23.3427647873        9.8014170615        5.2418923312
  H        23.6840501489       11.4680199564        5.1042815913
  H        21.6816405265       10.0877547705        2.2043980302
  H        23.2690973687        9.7219525494        3.0419560541
  H        22.9703509605       11.2473446115        2.3755328479
  C        21.3646949101        9.8077735152        7.0376234857
  H        22.9805296305       11.3220467291        7.2886633499
  H        21.5864617692       11.9047622439        6.5541545008
  C        20.4568438702       10.0854063819        8.2202088959
  H        22.1332556937        9.0539017796        7.2217860949
  H        20.7749391261        9.3355359386        6.2701745542
  C        19.1889027375       10.9179636918        7.8312119536
  H        21.1143011264       10.6041713318        8.8499336825
  H        20.1032030492        9.1369787918        8.6155168005
  C        18.0390898359       10.0948237574        7.3487834821
  H        18.9367895265       11.5775107766        8.6949902983
  H        19.5450182420       11.6869749381        7.0600466027
  C        16.8028075733       10.9726037339        7.1722316000
  H        17.8062280627        9.2400870981        8.0033539316
  H        18.2928991157        9.6950701384        6.3940630755
  C        17.1158965103       12.3532743531        6.5116459289
  C        16.4179108162       11.7139963142        8.3933394909
  C        15.6698950414       10.2580862214        6.4067739625
  C        16.9013989901       13.4616985003        7.3031508431
  C        17.7478631346       12.7155488167        5.2774522468
  C        16.4401915248       13.0811332493        8.5355938836
  C        16.2027000374       11.0218596165        9.5720603344
  H        16.0103163431        9.8632674359        5.4684651943
  H        15.2848134666        9.4711236028        7.1162963270
  C        14.4213030428       11.1038006533        6.0628218357
  S        17.3890080020       14.9662416591        6.5208130730
  C        17.7979401463       14.0892198896        5.0959731125
  H        17.9932365545       11.9334677249        4.5868775341
  C        16.1218060454       13.7300692268        9.7144838316
  H        16.1644464352        9.9759762097        9.5398074586
  C        15.8288917225       11.6530447785       10.7342265155
  H        14.7091461000       12.0240733534        5.6111975246
  H        13.8542492881       11.2357209413        6.9712584080
  C        13.4778381516       10.5193747889        5.0091982288
  C        18.2042463889       14.6795371373        3.7764810144
  C        15.8348022407       12.9571709376       10.8420308337
  H        15.9903499749       14.7879532764        9.7983081707
  C        15.4141327065       11.2039111699       11.9431748428
  H        12.5047875674       11.0267979193        5.0364362861
  H        13.2357764554        9.5147793945        5.2556259444
  C        13.9550763266       10.5915474421        3.5667566087
  C        18.3077211923       16.0545821660        3.5018041818
  C        18.5431147625       13.7996511034        2.6708538172
  C        15.3785861177       13.6178793542       12.0949124775
  C        15.2313363382       12.3068553479       12.7750016495
  S        15.0582724315        9.6879447891       12.6102281503
  H        14.7240452295        9.8139595728        3.4731246304
  H        14.3280703934       11.5885685983        3.4314159702
  C        12.8579299847       10.1498644428        2.5857259554
  N        18.1658439812       17.1036557851        4.5013789533
  C        18.6020995342       16.5623463630        2.2611265814
  C        18.7991922862       14.2695703904        1.3915502176
  H        18.7211013758       12.7976167483        2.8525639332
  C        14.0667636525       14.3995772196       11.8753826746
  C        16.5451504897       14.4490481442       12.7213030479
  C        14.7822348364       11.8894961369       14.0287710555
  C        14.7720204767       10.4918799214       14.1661068077
  H        12.6359548073        9.1152433600        2.8472083061
  H        12.0860501503       10.8478345993        2.8739491600
  C        13.3784929628       10.2976252385        1.1090820030
  S        18.4038060941       18.5589183426        3.6764793232
  N        18.6316619034       17.9633487013        2.2006003145
  C        18.8135022713       15.7412585955        1.1197254734
  H        19.2002987851       13.6299205584        0.5813626636
  H        14.1723133336       15.2784631374       11.1997980026
  H        13.6032188031       14.8116671260       12.7980432102
  C        12.9531093473       13.5461845434       11.1867393054
  H        16.9527349468       15.2455799027       12.0518962438
  H        16.1116218930       14.9147667998       13.5939535410
  C        17.8063570432       13.5886178513       13.0890579093
  H        14.4813526528       12.6765333645       14.7394109280
  C        14.3682812974        9.7461035783       15.3375236243
  H        14.0346791907        9.5185443340        0.9783143935
  H        13.8387179222       11.3018007724        0.9992825188
  C        12.2953290943       10.3133386818        0.0659581089
  C        19.0575650542       16.3475872624       -0.0815270458
  H        13.2840693148       13.2706475360       10.2027942796
  H        12.8471176989       12.6530872190       11.7613398055
  C        11.6069903583       14.3066517564       11.0494041347
  H        18.0247028076       12.8783101858       12.2774449951
  H        17.5846020896       13.0210963971       14.0529274028
  C        18.9823338706       14.4512833401       13.2732234352
  C        14.2863459129        8.3755935693       15.5011523432
  C        14.0876262648       10.5886172890       16.5451385034
  H        11.8810556611        9.4038634136       -0.1188035968
  H        11.4026117290       10.8569714182        0.2563015246
  C        12.8768751740       10.8362413229       -1.2708150458
  H        19.0027457402       17.3819145999       -0.0686528696
  C        19.3041053124       15.9168087675       -1.3788375987
  H        11.6260825006       14.9183638520       10.0995685608
  H        11.4419779622       14.9194596696       11.9509523409
  C        10.4379223954       13.3156592538       10.8176192650
  H        19.3985726193       14.5603659570       12.2773289232
  H        18.7656602085       15.4574063584       13.6291534620
  C        19.9580535233       13.8618980405       14.2960048989
  N        14.6655110738        7.4184170353       14.5596196813
  C        13.8610018823        7.7151341101       16.6538520521
  C        13.6654441258        9.9736756997       17.7833312133
  H        13.9821093729       11.6149300825       16.4249965246
  H        12.4959060211       10.2423099009       -2.0631406435
  H        13.9626042584       10.8187721678       -1.3833014124
  H        12.6901515150       11.8806633824       -1.3549366914
  S        19.6955166146       14.2766627300       -1.7904221311
  C        19.4452349702       16.9185530265       -2.5193545893
  H        10.7102420355       12.7245956365        9.8662163269
  H        10.4889947367       12.6329784406       11.6156186229
  C         9.1261275229       14.0070100883       10.6678528154
  H        20.1478926542       12.8609581240       13.9274106103
  H        19.6121835480       13.7623785205       15.3512865302
  C        21.1864279467       14.6364652742       14.4443024302
  S        14.4427799768        5.8551565946       15.1281536667
  N        13.9153395812        6.3044014510       16.6077215203
  C        13.5853379227        8.4807576890       17.8343632544
  H        13.5451431084       10.5493527662       18.6615436856
  C        19.7632457122       14.8811298233       -3.4612000034
  N        19.6177615556       16.2344353252       -3.6801045969
  O        19.0964882128       18.1402619338       -2.3397197009
  H         8.4642460857       13.8883677770       11.5322513738
  H         9.2883767115       15.0723235757       10.5285820251
  C         8.3979484557       13.3790570098        9.4705518488
  H        21.9094950896       13.9568908641       14.9327851248
  H        21.3169563308       15.0218504289       13.4463626090
  C        21.0040208783       15.7977958865       15.3165290418
  C        13.2670400667        7.7247068767       19.0574050568
  S        20.4574380269       13.9974722652       -4.7731006507
  C        19.6487961179       16.9464497626       -4.9569926647
  H         8.8994795443       13.5917346001        8.4814949415
  H         8.4741371382       12.3043145433        9.5654753878
  C         6.9848574604       13.7810647951        9.2579933882
  H        21.0853156382       15.3753103203       16.3369729574
  H        20.0008319120       16.1746072127       15.1674995660
  C        22.1501247097       16.7964369619       15.0855807664
  H        13.5598872978        6.6451960562       19.0826322154
  C        12.5914544743        8.0916508430       20.2170152030
  H        20.4297994077       16.7132192950       -5.6161619463
  H        19.9482422325       17.9496970630       -4.6802852995
  C        18.1676230375       16.8874181158       -5.4997663502
  H         6.5994479626       12.9953921077        8.5824206291
  H         6.9631195876       14.7136789682        8.6774826004
  C         6.2034224465       13.6702155833       10.5654777872
  H        22.5482076842       17.0824758579       16.0879273699
  H        22.9857561550       16.3533448861       14.5271089521
  C        21.6763145149       18.1126900037       14.4612662888
  S        12.1757074835        9.6663222798       20.7638201673
  C        12.4721579695        6.9955438403       21.2414693675
  H        18.1056105082       16.0533786926       -6.2060067959
  H        17.9502021250       17.8169189793       -6.0442738220
  H        17.3741072379       16.8244958444       -4.6884882104
  H         6.4633005056       12.7949077643       11.0955757915
  H         6.1962619228       14.4829788946       11.1942996015
  H         5.1525855240       13.6452783103       10.2317839010
  H        21.7465548568       18.9058559743       15.1873166255
  H        22.4080519506       18.3586704361       13.6915728095
  H        20.6784543727       18.0156426431       14.0336742623
  C        11.5292515276        8.8138434939       22.1774604448
  N        11.9189080678        7.5376096830       22.3491876352
  O        12.7554935930        5.8064058129       20.9804685864
  S        10.8629502419        9.5994677756       23.5653993189
  C        11.6652208525        6.7182810479       23.5248854857
  H        11.5944688349        5.6282316118       23.2063078790
  H        10.7727825734        7.0016284690       24.0143021271
  C        12.8885308431        6.7459337582       24.4521829728
  H        13.8471975155        6.3140888855       24.0723619714
  H        12.7192735588        6.3005050615       25.4292183386
  H        13.0939010285        7.7765410310       24.5587770413
