352
 i =    51900, time =    51900.000, E =        24.7152424324
  H        11.6445841665        7.4838735946       32.2039861005
  C        11.3384188795        6.4304611471       32.0938456964
  H        12.0962603908        5.6580719137       32.0717148619
  C        10.2818643622        6.2484747756       30.9851577386
  C        10.7516131007        6.1474173307       33.5176486027
  C        10.9595913718        5.8576239411       29.6570347356
  H         9.5568453820        5.4449342105       31.2124134384
  H         9.7411647634        7.1917078638       30.8554826521
  H         9.7811186971        6.6855556932       33.6934645801
  H        10.6391545193        5.0820290563       33.8181312539
  H        11.3395601832        6.4858315119       34.3962156882
  C        10.0003017364        6.0454615624       28.5332232925
  H        11.3402652600        4.8165599667       29.6567459849
  H        11.6994562155        6.5768307458       29.4643178422
  C        10.6971098606        5.6612658099       27.1852572168
  H         9.0743710917        5.5797972476       28.6368476327
  H         9.8303077061        7.1767698061       28.5124855787
  C         9.7252108488        5.0899749052       26.1432791482
  H        11.4233758508        4.9510445896       27.3240929774
  H        11.2370895694        6.4797430536       26.9225803989
  C         8.5238269297        5.9500317214       25.8155147540
  H        10.0998709119        4.6591132462       25.2122903111
  H         9.3240178845        4.2102546756       26.7361658032
  C         7.3394291943        5.1792913211       25.1173630548
  H         8.0755232846        6.5090586404       26.6659928792
  H         8.8702577472        6.7282638969       25.1472392541
  C         6.8284051083        3.9550138137       25.8378395801
  C         7.6591173090        4.4068478194       23.9679618527
  C         6.1793889802        6.1100523292       24.7956594324
  C         6.8759339197        2.7886459787       25.0967526191
  C         6.4080411956        3.6955951705       27.1313419137
  C         7.5138189221        3.0323925029       23.8959580019
  C         8.3257192414        4.9648257432       22.8365773777
  H         6.4321720418        6.6183888723       23.8179104379
  H         5.9883685331        6.7791148960       25.6776468430
  C         4.7917992230        5.4498960024       24.5920631783
  S         6.1834101241        1.4551485013       25.9090282952
  C         6.1181821154        2.3607020686       27.3668722371
  H         6.3625238990        4.5190224040       27.7743570457
  C         7.9739529427        2.3937000193       22.7852248276
  H         8.3389628540        6.0976090377       22.7652763160
  C         8.6221562077        4.3120286471       21.7340020627
  H         4.7756343088        4.9290196246       23.6579013846
  H         4.5005221983        4.7272546103       25.3096277838
  C         3.5565511354        6.4678785555       24.4564801518
  C         5.7269460953        1.6125444831       28.6195758055
  C         8.4968999049        2.9858909144       21.6388078032
  H         7.8149363480        1.3624297335       22.7173651507
  C         9.0274933779        4.6920680565       20.4904359259
  H         2.8198178020        6.2818646280       23.6721692349
  H         3.9433642189        7.4352749183       24.2050699773
  C         2.8812369800        6.4723681443       25.8249277007
  C         5.8608735479        0.2515762565       28.9065163994
  C         5.1555837338        2.4184946089       29.6902462611
  C         8.8561502935        2.3185577631       20.3281464134
  C         9.1772881090        3.6423753719       19.6437124720
  S         9.4138478301        6.2234037080       19.7686208044
  H         2.2899451585        7.3707600387       25.8791019441
  H         3.5851164365        6.4787987772       26.5729519294
  C         2.0535971631        5.2556081026       26.1098849859
  N         6.2952913585       -0.7476686340       28.0268714826
  C         5.6303397645       -0.2365411454       30.1502423540
  C         5.0092936682        1.9971750262       30.9969625361
  H         4.9289698492        3.4928666391       29.4699269726
  C         7.6301454592        1.5798380380       19.6714599708
  C        10.0580532582        1.3883753718       20.4276565322
  C         9.5246994228        4.0383627385       18.3484894666
  C         9.7363386679        5.3867005628       18.2989191178
  H         1.4393946009        5.0114227326       25.1644975549
  H         2.6066466464        4.3662190573       26.2895581696
  C         1.2044618700        5.5012059043       27.3495572995
  S         6.2181775855       -2.1929618661       28.7978747050
  N         5.5934165231       -1.6423101930       30.1585499593
  C         5.2644406012        0.5533339689       31.2647465525
  H         4.5983421461        2.6703159399       31.6792362273
  H         7.1536066879        0.9149279996       20.3922076336
  H         7.8263993548        1.0615449535       18.7145594687
  C         6.5070808655        2.4603719154       19.2186318158
  H        10.2766070125        1.0261999304       19.3757114425
  H         9.9023595974        0.5350305877       21.0606170354
  C        11.3266268355        2.1926286204       20.9391042854
  H         9.6094577706        3.2895217415       17.5458831331
  C        10.1281884489        6.1984921471       17.1008952464
  H         0.7621703673        4.5464753820       27.5317843271
  H         0.3636322929        6.1543870576       27.1361429808
  C         2.0373649105        5.9138780763       28.6056364260
  C         5.0042701250       -0.1041721409       32.4990635142
  H         6.7600228626        3.2909824677       18.5460270341
  H         6.0503129888        2.9330215728       20.0160864390
  C         5.3738212249        1.6411221995       18.5520729258
  H        11.3610432743        2.6442713731       21.9160209295
  H        11.4822826157        2.9882993815       20.1674053334
  C        12.5306324694        1.4221833482       20.6777344439
  C        10.2688978207        7.6492904004       17.0107789145
  C        10.3423041416        5.5228698228       15.8227615503
  H         2.8933561330        5.2055604026       28.5712542561
  H         2.4203666530        6.8939433149       28.5345926106
  C         1.3549309881        5.6551379367       29.9473593165
  H         5.1603551477       -1.1602296913       32.4285459981
  C         4.6813897263        0.3134736615       33.7020556974
  H         4.8244747117        1.1313479142       19.2812632675
  H         5.7487516963        0.8296705590       17.9044727228
  C         4.4338782614        2.5872809604       17.7826056571
  H        12.7811073867        0.7412014450       21.4826110733
  H        12.3804691165        0.7589734604       19.7540582005
  C        13.7481532497        2.3988610254       20.5018384371
  N        10.0631894722        8.5024131386       18.0633397994
  C        10.5999826068        8.3373756987       15.8858259063
  C        10.5892310159        6.2236971408       14.6697514667
  H        10.0891994646        4.4282486173       15.6641146119
  H         2.2392488409        5.5941825432       30.6354309826
  H         0.5830647540        6.3695681577       30.3090963689
  H         0.9123867985        4.7193542021       30.0149613498
  S         4.3455862421        1.9470647698       34.1958432273
  C         4.5439239472       -0.6774818738       34.7753127205
  H         4.3531561929        3.5032434044       18.2903009900
  H         4.8139308660        2.9216093738       16.8276220595
  C         3.0283983863        2.0336838424       17.7245062125
  H        13.4587612930        3.3345333555       19.9458363747
  H        14.4584162444        1.9064235040       19.8143101555
  C        14.5328568578        2.8625836636       21.7910451687
  S        10.1559695321       10.0412064754       17.5022971135
  N        10.6439127965        9.7364045486       16.0392730412
  C        10.8738057856        7.7081848672       14.6761108624
  H        10.7995493755        5.6284851483       13.6644911821
  C         4.0888510453        1.2276561282       35.8553419065
  N         4.0795044065       -0.0929648404       35.8563008628
  O         4.5455367083       -1.8849463994       34.5406248261
  H         2.4550001180        2.7019211470       17.0700077749
  H         2.4755077646        2.1162191694       18.6328409107
  C         2.7708955845        0.5415545590       17.1890748153
  H        14.9298877669        3.8589206129       21.6771875087
  H        13.8265325457        3.0301896853       22.5796227897
  C        15.4655462262        1.8174907960       22.2415270442
  C        11.2029305212        8.4496872265       13.4932482613
  S         3.8900904567        2.0964403623       37.3402233921
  C         3.8795829813       -0.8838493190       37.0758660589
  H         1.9439007487        0.5649644208       16.5657064990
  H         3.5936362802        0.1486735163       16.6132064528
  C         2.3467586578       -0.3994253949       18.3364532359
  H        15.8818901165        1.2784203901       21.3882159996
  H        14.9959651862        1.0171239030       22.6965400846
  C        16.5938594357        2.2369596458       23.2736299541
  H        10.7682419100        9.4394602173       13.5613016245
  C        11.5487025759        8.0459632129       12.2852803811
  H         2.9731723514       -0.6041477550       37.6612446729
  H         3.5655966005       -1.8459952324       36.8377878078
  C         5.2469871018       -0.9083541009       37.8677963632
  H         1.2477055065       -0.3282294383       18.4032585964
  H         2.8878556942       -0.2459980194       19.2328069546
  C         2.7234539468       -1.8435127324       18.1319639744
  H        16.2896437102        3.1058778243       23.8218540361
  H        16.7980965185        1.4009370423       23.9319839600
  C        17.9283878751        2.5389719239       22.5629011498
  S        12.2554820003        6.5406461652       11.7432562614
  C        11.5090459854        9.1085041488       11.2048892436
  H         6.0821052369       -0.4367207996       37.3758627492
  H         5.1027244469       -0.6056695029       38.8717868295
  H         5.4813397523       -2.0522654727       37.9840376227
  H         2.7224262089       -2.1360894738       17.0644720734
  H         2.0420826570       -2.4623503100       18.7296119057
  H         3.7407586127       -2.0365165810       18.4761120417
  H        17.7870801866        3.2692639879       21.7671849397
  H        18.3306049165        1.6510510410       22.0262851175
  H        18.7424201902        2.7836870958       23.1958596261
  C        12.4440627988        7.3383884904       10.1587466144
  N        12.0896455302        8.6538672684       10.0831168475
  O        11.1307006239       10.2329777514       11.4096603530
  S        12.8879849672        6.4808165154        8.7096289290
  C        12.0838017659        9.4753705018        8.9026133170
  H        12.1477041019       10.5283919041        9.2431544826
  H        13.0032416209        9.3456875787        8.2411200636
  C        10.7835675891        9.5120446620        8.1587047240
  H        10.3931241865        8.4674832105        7.9467163677
  H        10.1294507176       10.0981542236        8.7509425939
  H        10.8428793522       10.1457714157        7.2974098661
  H        23.3901295709       11.7783713810        3.1620361182
  C        22.5494687393       11.1965842363        3.4973807297
  H        21.6938641550       11.8687334776        3.6358215818
  C        22.9348722302       10.4592093078        4.8039881205
  C        22.0581279890       10.2266997108        2.4846640854
  C        21.9693056954       10.6992054151        5.9535287584
  H        23.0240629996        9.3998998427        4.6216889721
  H        23.9496662377       10.7890049342        5.1986915812
  H        21.2396448786        9.6277771618        2.7687393575
  H        22.8242345562        9.4731719993        2.4223311358
  H        21.9165934116       10.7278131206        1.5267970484
  C        20.9167410606        9.5701061607        6.0445192270
  H        22.5297325531       10.7895864447        6.8852905181
  H        21.4303066109       11.6849534812        5.7906729267
  C        20.1209636753        9.5852637904        7.4020768215
  H        21.2645653030        8.5789758189        5.9408681099
  H        20.2713744525        9.8679026334        5.1377649167
  C        18.9188658559       10.5528775927        7.4943360328
  H        20.7791860145        9.6499505157        8.2492761421
  H        19.6977716915        8.6063542119        7.5433015550
  C        17.7648288790        9.7806898695        6.8340882959
  H        18.6617928471       10.6478592922        8.5754018869
  H        19.1914588393       11.4813805268        7.0448163159
  C        16.5132088349       10.6508746412        6.5991140336
  H        17.3930968083        8.8306138887        7.3675339333
  H        18.0844349334        9.5390396205        5.7899918373
  C        16.8153500286       12.0720106106        5.9729649301
  C        16.0018741390       11.3532284387        7.8850927598
  C        15.3929960964        9.8681938368        5.8827115413
  C        16.5633704268       13.1200704179        6.8457980595
  C        17.3621742067       12.5212281894        4.7594080027
  C        16.1632794756       12.6956849737        8.0635636929
  C        15.7020807215       10.6412172229        9.0542682959
  H        15.8226607823        9.3125505821        5.0668531766
  H        14.9966097436        9.0674595129        6.4582421640
  C        14.1178860533       10.6927457832        5.4779455639
  S        16.9667461839       14.6478607254        6.1934046931
  C        17.5106145121       13.9094843499        4.7238982474
  H        17.6110093458       11.8272036221        3.9162337046
  C        15.9903196622       13.2269380559        9.2865989067
  H        15.6686586050        9.5938008006        9.0013285604
  C        15.3640099148       11.2392636482       10.2587170164
  H        14.4854924843       11.4803363472        4.8386007034
  H        13.7090799710       11.2324626867        6.3797951866
  C        13.0327438563        9.8272415194        4.8384144602
  C        17.9329022084       14.6701381081        3.4766693572
  C        15.5238895406       12.6046280576       10.4232623760
  H        16.0296048463       14.2899883548        9.3813040080
  C        15.0604247149       10.8265214906       11.5376536665
  H        12.0427137632       10.2058434064        5.0107654370
  H        12.9461398387        8.9010896277        5.4404746876
  C        13.2994519673        9.5345158516        3.3484084098
  C        17.8964941877       16.0577833968        3.2919669006
  C        18.3563364173       13.8564484171        2.2849070544
  C        15.2376608882       13.3192165593       11.7205131304
  C        15.0488410751       11.9432143289       12.4079351657
  S        14.6993230063        9.3375165409       12.4292278646
  H        13.8643040555        8.6129062214        3.2504515852
  H        13.8170738534       10.4217489073        2.9166055235
  C        11.9907665354        9.3288124394        2.5279924151
  N        17.5255496834       16.9612605634        4.2778783799
  C        18.2441559702       16.6779546739        2.1182513426
  C        18.6506968067       14.4850558705        1.0654388222
  H        18.3660867476       12.7366828227        2.2962909261
  C        13.9700943019       14.1820691202       11.6715882911
  C        16.4229768551       14.0406870337       12.2470107401
  C        14.7870062521       11.5169527754       13.7153727725
  C        14.5131810713       10.1680235007       13.9016085447
  H        11.4999448263        8.4799583705        2.9845467498
  H        11.3742781425       10.1716423587        2.7218636757
  C        12.2709295932        9.1008898708        1.0329356504
  S        17.5075578727       18.4353782884        3.6433204665
  N        18.0780318222       18.0466547563        2.1661659693
  C        18.6264661548       15.9749227527        0.9144042456
  H        18.8442143217       13.8456532126        0.2770791332
  H        14.1542456583       15.0455113280       11.0615533925
  H        13.7461637326       14.5620487949       12.6025561656
  C        12.6991697447       13.3265147676       11.2774781024
  H        16.9151120951       14.7244993958       11.4459951182
  H        16.1714634749       14.8431942786       12.9595324044
  C        17.6480854576       13.2130851623       12.7732916926
  H        14.7260969717       12.2896814009       14.4441289816
  C        14.1163667638        9.5010374224       15.2012130526
  H        11.3738074287        8.7142232499        0.5027254773
  H        12.8052045814        8.1334980201        1.0513723765
  C        13.0531682912       10.1602150394        0.3406630291
  C        18.9704292074       16.6473781075       -0.2914288512
  H        12.8587823986       12.7805209428       10.3240717405
  H        12.4558820676       12.4427225818       11.9540484183
  C        11.5463972828       14.2279991705       11.1966069973
  H        17.8544187695       12.4206416838       12.0144705872
  H        17.2910046587       12.6778964244       13.6653784767
  C        18.7867505263       14.0515297608       13.2964883576
  C        14.0966468138        8.1560789778       15.4005692738
  C        13.8950388716       10.3408059461       16.4245445317
  H        13.1410747033       11.1118795161        0.8704773612
  H        14.1505763958        9.8691564398        0.2349519358
  C        12.5022933869       10.2436957264       -1.1172080461
  H        18.8993701278       17.7482091095       -0.2077554717
  C        19.1837167788       16.2682873701       -1.5898467051
  H        11.8177621629       14.9175241858       10.4740525634
  H        11.3767863177       14.7585039881       12.1460076935
  C        10.2853143849       13.3865871474       10.9905335637
  H        18.8221934335       14.9557836781       12.7150177357
  H        18.5712921370       14.3657081379       14.2732962895
  C        20.1476480946       13.3893706699       13.3488812577
  N        14.2705793638        7.1317551958       14.4164349262
  C        13.7163025652        7.5670936113       16.6154470902
  C        13.6754755516        9.7159942217       17.6660401299
  H        13.8206635530       11.3564389048       16.3546025221
  H        11.4327474969       10.2673654771       -1.1655055355
  H        12.8584549529        9.3903449368       -1.6497758922
  H        12.9062152055       11.1091098908       -1.5612405167
  S        19.3313185338       14.6789990092       -2.1277643852
  C        19.3290862699       17.3358346768       -2.5808448458
  H        10.6007425750       12.4084767094       10.4952666099
  H         9.8938691030       13.1198557560       11.9423603064
  C         9.2427498698       14.1633198386       10.1530229145
  H        20.2808340942       12.8531780086       12.4883991869
  H        20.2049542971       12.6749998740       14.1212438610
  C        21.3073495901       14.4180006021       13.4191726171
  S        14.0605124542        5.6533538013       15.0428962738
  N        13.7237955397        6.1493725499       16.5150894016
  C        13.5186902866        8.2586344966       17.8254673143
  H        13.5554132405       10.4252253314       18.4344881287
  C        19.5476626131       15.3472023097       -3.7311846201
  N        19.6529757328       16.7269621139       -3.7386867076
  O        19.5182499125       18.4875983062       -2.3653789876
  H         8.7282691553       15.0271863543       10.6653683901
  H         9.7283333780       14.6068955341        9.2755168038
  C         8.2449879158       13.2431807938        9.5881178899
  H        22.2440604570       13.8886724378       13.2365626348
  H        21.2411325896       15.1432207853       12.6255081690
  C        21.3202628344       15.1750987658       14.7454794200
  C        13.1881531383        7.5240945389       19.0347158126
  S        20.1112109649       14.4517235182       -5.0927571600
  C        19.8173155416       17.5435012135       -4.9482274843
  H         8.7527279639       12.6151510605        8.8353806702
  H         7.8404048859       12.6312544335       10.3817273306
  C         7.1330240619       13.9742774714        8.9028329517
  H        21.7826197410       14.4930687295       15.5355901326
  H        20.2702583641       15.3381672091       15.0489818666
  C        21.7635550839       16.6185035198       14.4497786242
  H        13.5681839718        6.5293839939       18.9274201404
  C        12.6818983880        7.9081988175       20.2747902018
  H        20.6113694373       17.1635449147       -5.5440819073
  H        20.1336184512       18.6507186704       -4.7321293245
  C        18.4713326573       17.5620443929       -5.7048419143
  H         6.8318548180       13.3534089416        8.0797139276
  H         7.4298456432       14.9064165686        8.5493445970
  C         5.8919393761       14.2325740231        9.7014055785
  H        22.8660000109       16.5455217048       14.5041282850
  H        21.5531883181       17.0510463751       13.4644203145
  C        21.4090858834       17.6560759570       15.5793508794
  S        12.1809960831        9.5229030152       20.7313164307
  C        12.5654714588        6.9108753664       21.3936602308
  H        18.1590638198       16.6783989250       -6.2916783530
  H        18.4955012889       18.2798151058       -6.5190490766
  H        17.6579716598       17.9025425160       -5.0650846645
  H         6.2166761447       14.7335492387       10.5739816122
  H         5.0689530359       14.7804149493        9.2029210738
  H         5.5414895067       13.2454527654       10.0922988721
  H        20.3383322739       17.7915423177       15.8120117582
  H        21.9315520140       17.1240033213       16.3511898867
  H        22.0243307347       18.6496018158       15.4718157642
  C        11.7037919117        8.7658610363       22.2503460546
  N        11.9490215571        7.4643569140       22.4142805222
  O        12.9085461910        5.7600170563       21.2805282997
  S        10.9801645707        9.5748620352       23.6107619194
  C        11.6932382345        6.7475154122       23.5655571967
  H        11.7070826592        5.6324734201       23.4242354246
  H        10.6695778169        6.9322374042       23.8759863092
  C        12.8574648542        6.9772062430       24.5907932318
  H        12.5672498039        7.6284383841       25.4444201274
  H        13.7302905246        7.4484743204       24.0355518240
  H        13.2149892798        6.0210721521       25.0549249005
