352
 i =    75200, time =    75200.000, E =        25.5427362867
  H        12.0348158124        5.1459699575       32.5241201101
  C        11.0454184145        5.5589909057       32.2112274238
  H        10.3528345190        4.7853173550       31.9501443744
  C        11.3008628295        6.4927345561       30.9869307091
  C        10.4357628119        6.2318923651       33.4290773490
  C        12.0694662103        5.8184943140       29.8478562935
  H        10.4030841902        7.0427342355       30.7827966290
  H        12.0287280603        7.2600158788       31.4334437189
  H        10.5324556622        5.5962298172       34.2537558203
  H        11.0323174811        7.1351639383       33.6209661234
  H         9.5003509094        6.5705426155       33.0319053546
  C        11.3277707458        4.9641508673       28.8667406016
  H        12.8531779833        5.1975032473       30.3118065678
  H        12.7012532950        6.5686927075       29.3312030979
  C        10.8538917360        5.7286195910       27.6740105362
  H        12.0086802622        4.1136811017       28.4736367873
  H        10.4409914095        4.5418853226       29.3027892285
  C         9.9569029065        5.0093238931       26.7160257572
  H        11.7087164250        6.1083651881       27.0542770093
  H        10.2715329977        6.5889599870       28.1024927573
  C         8.6758451570        5.7892146219       26.3274903051
  H        10.5192888954        4.7996543655       25.8289250347
  H         9.6046953934        4.1632915877       27.1587075149
  C         7.6253747164        5.0318417036       25.4972501935
  H         8.1384440182        6.0610753770       27.2623956463
  H         8.9000298681        6.7129731059       25.8351431368
  C         7.2302251193        3.6425474396       26.1661218697
  C         7.9852486122        4.2980778100       24.2719399905
  C         6.2925492768        5.8158469865       25.2891507287
  C         7.2987721914        2.5853474917       25.2380054127
  C         6.8107864102        3.2089397741       27.4246158738
  C         7.7646317007        2.9949618225       24.0390750775
  C         8.4428907085        5.0291577719       23.1749495951
  H         5.8921171852        5.1723898725       24.5114438633
  H         6.6961203348        6.6668182325       24.8049679114
  C         5.3644203277        6.0969020747       26.4831451546
  S         6.8134552119        1.0365536091       25.9240398766
  C         6.4293438702        1.8682199745       27.4037310762
  H         6.6914497093        3.9198619116       28.1999380387
  C         8.1350499324        2.4875721504       22.8468750927
  H         8.5505167656        6.1262094985       23.2473909935
  C         8.6404096271        4.5101549427       21.9158834505
  H         5.8708603835        6.0200602376       27.4213512284
  H         5.0705744811        7.1510517526       26.4103374553
  C         4.0861339658        5.2297916299       26.6842162626
  C         5.7509087837        1.2184215533       28.5672062362
  C         8.5325733963        3.1946948099       21.7421542898
  H         8.1483252992        1.4181408141       22.7771583899
  C         8.9776376396        4.9776763544       20.6803003475
  H         4.2816637215        4.2435025965       27.0941180529
  H         3.5913257858        4.9464919990       25.7240208171
  C         3.0923560575        5.8574875173       27.6725742466
  C         5.8049951029       -0.1403394839       29.0078241109
  C         5.1581074441        2.1531071975       29.6010000343
  C         8.8574299952        2.5139384765       20.4383162735
  C         9.0551951796        3.9298841992       19.7804429008
  S         9.3223260249        6.5090129495       19.9002586882
  H         2.5796798328        6.6046864623       27.1204333839
  H         3.6603910468        6.3976909820       28.4747728356
  C         2.0414561854        5.0224881292       28.2860850048
  N         6.2914657801       -1.2028836400       28.2733615081
  C         5.4410924768       -0.5516730152       30.3018924004
  C         4.8087699869        1.7783001666       30.8973986795
  H         5.0302908412        3.1652972618       29.3712767757
  C         7.6576567841        1.7196558153       19.7328892611
  C        10.2484226619        1.7306091841       20.5947539905
  C         9.5163515019        4.3441295223       18.4840676315
  C         9.7127154189        5.6885783534       18.4449514871
  H         1.3344920301        4.5257800553       27.5724833995
  H         2.5859295787        4.2217257053       28.6844769380
  C         1.3446728375        5.8135563913       29.4406273457
  S         6.2856237074       -2.5454924629       29.2236853997
  N         5.6561217685       -1.8933734460       30.5326084967
  C         4.9733223906        0.3407550390       31.3125418052
  H         4.3753677271        2.4663009274       31.5805061202
  H         7.5230014695        0.8274546757       20.3884661600
  H         7.9261533110        1.3037226619       18.8457320642
  C         6.4194950781        2.6551191478       19.5818802195
  H        10.3155140800        1.0686033696       19.6969380776
  H        10.2314261702        0.9414183148       21.3858978844
  C        11.5643084948        2.5828777587       20.6775769394
  H         9.5117325356        3.5766476547       17.7523141541
  C        10.0367947484        6.5351509966       17.2226215125
  H         0.4483335282        6.4153689093       29.1533899209
  H         1.9151064285        6.6503303943       29.8539361285
  C         0.8860557157        4.8833407342       30.6187831218
  C         4.8072565618       -0.2006217929       32.6121519130
  H         6.7311573457        3.3708517971       18.8189110163
  H         6.1780802584        3.2489513942       20.4599570065
  C         5.0969518882        1.8815751113       19.3383507987
  H        11.4737285930        3.3345773946       21.4790044392
  H        11.8179534612        3.1664391865       19.7948093300
  C        12.8665544544        1.8510090228       20.9742698131
  C        10.0480937534        7.9292561369       17.1049439252
  C        10.2340844296        5.7674775083       15.9534234876
  H         0.2670634264        5.5871767814       31.1927883140
  H         0.2239475993        4.1485833481       30.2087206126
  C         2.0760768216        4.3300771691       31.4629764135
  H         5.0214329469       -1.2246003083       32.6815406613
  C         4.5098229277        0.3192099786       33.8660538587
  H         4.2524199900        2.5186144707       19.6325140324
  H         5.1349521134        0.9886758370       19.9420483179
  C         4.9859796381        1.5806843926       17.8547799062
  H        12.4910355359        1.0813319827       21.6748163338
  H        13.2814502097        1.3161269180       20.1100473428
  C        13.9547779793        2.6376108573       21.5865483602
  N         9.8316030059        8.8454646882       18.1338803818
  C        10.4249211679        8.6015739693       15.9287898651
  C        10.5137545339        6.4361266750       14.7404595618
  H        10.1691109602        4.6935999197       15.8800015752
  H         2.8171049275        5.0275080390       31.9245577628
  H         1.6055750858        3.9556539007       32.3885460769
  H         2.5715397550        3.4877729128       31.0729699078
  S         4.1668813554        1.9427444927       34.2609879991
  C         4.4227814545       -0.6089504934       35.0148591404
  H         4.9995717242        2.5902204312       17.3468014465
  H         5.9514149904        1.1117218871       17.4885828795
  C         3.6960402017        0.8001356956       17.5092473089
  H        13.5430176219        3.3022599976       22.3059445383
  H        14.3970810844        3.3514513402       20.8520995344
  C        14.9807482485        1.7666797381       22.2004886843
  S         9.9026819098       10.3859425864       17.5230465185
  N        10.4227978401       10.0299850620       16.0041772778
  C        10.6602622305        7.9193101558       14.7193676674
  H        10.7506744260        5.8775411692       13.8442291261
  C         3.9353194181        1.3870127778       35.9277489859
  N         4.0616488731        0.0476124631       36.0812574055
  O         4.6934535990       -1.8262938400       34.9728641386
  H         3.7395893667        0.3296938915       16.5493957360
  H         2.8203133995        1.4223812203       17.3878150196
  C         3.2063025590       -0.1682694087       18.5985784153
  H        14.6380945023        1.0929557280       23.0022210724
  H        15.3818944169        1.0395892240       21.4598761480
  C        16.0703271767        2.6685249422       22.7704912797
  C        10.9530327674        8.7638313756       13.6048043854
  S         3.6307314119        2.4813220844       37.3059638767
  C         3.9063523372       -0.6210739016       37.3338765115
  H         4.0837811902       -0.6655435268       18.9141231482
  H         2.7701363678        0.3094898589       19.5143027600
  C         2.0411278905       -1.1475084250       18.2238021755
  H        15.4805202493        3.2948945420       23.4780529242
  H        16.4933021611        3.2360975964       21.9960848853
  C        17.2759875819        2.0352035623       23.4948605817
  H        10.9532930477        9.7405271878       13.8276688720
  C        11.5008999392        8.4672744315       12.4172861073
  H         3.3150474859       -0.0740884533       38.0699019825
  H         3.3104541111       -1.5551118331       37.1439609845
  C         5.3869253309       -1.0096821087       37.7841383750
  H         1.0929652767       -0.5051137044       18.1452296051
  H         1.8144761247       -1.8632949472       18.9874135598
  C         2.0744732285       -1.9957258966       16.9271715061
  H        17.4669431054        2.5407226355       24.4624172032
  H        16.9306352403        1.1098143830       23.9049200451
  C        18.4667709461        1.9232979184       22.5911450682
  S        12.0712990118        6.9813285062       11.8224963684
  C        11.4731063728        9.5257164912       11.4886787210
  H         5.8561088545       -0.1723936885       38.2405739621
  H         5.3133063061       -1.7231419579       38.6010945676
  H         6.0742881591       -1.4088152349       37.0234929479
  H         2.9751307558       -2.6250861929       16.9582938364
  H         2.0442363281       -1.3929024177       16.0495663942
  H         1.1304021276       -2.5569091181       16.8696780396
  H        19.3284297795        1.4077354368       23.1120655177
  H        18.6060198989        2.8961331463       22.2167439626
  H        18.1819197808        1.3439229894       21.7485203739
  C        12.0582034778        7.7033771601       10.2697069701
  N        11.9205965342        9.0609395884       10.3223742844
  O        11.1448519600       10.6846126141       11.6890641706
  S        12.4372403818        6.8510083937        8.7574332430
  C        11.9583582665        9.8490548417        9.1193880456
  H        12.1682408831       10.9101416223        9.4174950056
  H        12.8111246474        9.5065875482        8.5851846842
  C        10.7105185856        9.8705553288        8.2604637451
  H        10.9423165775       10.4729164135        7.4368819726
  H        10.2863113393        8.8621554842        8.0624773032
  H        10.0004021713       10.3966309495        8.8620928137
  H        19.8876697544       11.0612959106        3.6639665657
  C        20.4112428174       10.3006509235        3.1101411156
  H        19.8930449452        9.4076111372        3.2966841264
  C        21.8311161924       10.0530206450        3.7054923949
  C        20.6271657868       10.5983100677        1.6197503622
  C        21.8291571582       10.1530325449        5.2177260186
  H        22.3666777734        9.1787386338        3.3233427379
  H        22.4055213296       10.8597739366        3.4826817164
  H        20.7913234434        9.7367155108        0.9728676384
  H        21.5347627133       11.1455031013        1.3927103399
  H        19.8872479891       11.3118900597        1.1798773785
  C        21.2750832402        8.8979550143        6.0001995152
  H        22.8499606112       10.4213702980        5.5227463099
  H        21.1624284429       10.9426335810        5.4946118143
  C        20.1503796558        9.3364598069        6.9363020661
  H        21.9610640856        8.3461930253        6.6194824373
  H        20.8451590698        8.1530794030        5.3098053843
  C        18.8124797560        9.6045680384        6.2697062673
  H        20.4321220772       10.2211786011        7.6160955321
  H        19.8585323455        8.5609931466        7.6959833820
  C        17.7378501989        9.9089587810        7.4233657604
  H        18.9660985579       10.4583108845        5.5763078177
  H        18.5639834587        8.6948700850        5.7607684272
  C        16.5931556438       10.8253207277        7.0156434929
  H        18.2278805549       10.5710433941        8.1452126820
  H        17.3731208985        9.0063940139        7.8459413960
  C        16.9796815965       12.1348955555        6.2811756868
  C        16.2176967581       11.6853868738        8.1882763607
  C        15.3275281576       10.1840883812        6.3660938722
  C        16.7078296710       13.2736575788        7.0476799144
  C        17.3494527945       12.5403103136        4.9747974927
  C        16.2216242440       13.0219127585        8.2790111807
  C        15.6741063894       11.0192771718        9.3512617257
  H        15.6848786184        9.5863084137        5.5455505908
  H        14.9105860346        9.6119459540        7.1461334381
  C        14.1883089912       11.0417150585        5.9530220453
  S        16.9025202850       14.8037064222        6.2157435775
  C        17.4376259736       13.8841711363        4.7852632455
  H        17.4474941889       11.8442067252        4.2092053554
  C        15.6878844235       13.7141661750        9.3011621275
  H        15.7623699326        9.9575775156        9.4676967686
  C        15.2229625197       11.6843930744       10.4249749217
  H        14.5639071553       11.8852656148        5.4438334296
  H        13.7164490163       11.5112350818        6.8082503226
  C        13.1110718365       10.2792887354        5.1795937220
  C        17.8640891804       14.5514521346        3.5000283891
  C        15.1633785446       13.0388074134       10.4115166469
  H        15.6087704637       14.8034236919        9.3651567884
  C        14.8110324512       11.3264848798       11.6718732504
  H        12.1787722070       10.9228313647        5.2300137231
  H        12.8538630207        9.3677089107        5.7501409951
  C        13.4071841071        9.9896876837        3.7243649217
  C        17.8195738375       15.9220720950        3.2368669578
  C        18.3491716932       13.7388172519        2.3638658583
  C        14.8244073849       13.7521256986       11.7224461469
  C        14.5911304294       12.4150590828       12.4272728157
  S        14.7655882097        9.8401935468       12.4229440444
  H        13.5645304931        8.8820682004        3.7296766656
  H        14.3600819878       10.4612511938        3.5721568311
  C        12.3870713320       10.3729021372        2.7109934242
  N        17.5197897893       16.9238646786        4.1647415544
  C        18.2532302491       16.5807459489        2.0509963032
  C        18.5782733991       14.2859078526        1.1389272893
  H        18.4081070066       12.6886549505        2.5425165982
  C        13.5087869947       14.6594624646       11.6844849590
  C        16.1395356437       14.4709219145       12.1436840331
  C        14.2061676410       12.0139575074       13.7537039816
  C        14.3144028169       10.6628352694       13.8550416015
  H        11.4905348781       10.2898500058        3.2541473267
  H        12.4537748362       11.4574309669        2.6006492962
  C        12.4185590025        9.6676657416        1.3583419510
  S        17.4836731972       18.4043065034        3.4675374717
  N        18.0876595231       17.9630609618        1.9841603262
  C        18.5557442834       15.7471127135        0.9628253844
  H        18.7192841797       13.5764407751        0.3675404174
  H        13.6740753215       15.5116246519       10.9943612754
  H        13.3110863169       14.9608118156       12.6709792753
  C        12.3187016937       13.9449945601       11.1975136488
  H        16.5021592314       15.1090782703       11.4952452324
  H        15.9051880101       15.0923122749       13.0417657342
  C        17.2684902236       13.5024693296       12.4189132130
  H        14.0102822060       12.7969301287       14.5204221817
  C        14.0272777906        9.8170207924       15.0717620104
  H        11.4657770221        9.6365088863        0.8816802676
  H        12.6389314185        8.5822337951        1.5147401243
  C        13.3600915118       10.0769433601        0.2071721146
  C        18.7488708207       16.3782375308       -0.3054076241
  H        12.4399490547       13.4935519180       10.2261368822
  H        12.0729682351       13.0662074866       11.8178991901
  C        11.0816349219       14.8085382888       11.0896710416
  H        17.4570558911       13.2206572609       11.3566212020
  H        16.9185410796       12.6699818710       13.0263070266
  C        18.5427981196       14.1685268731       13.0872689006
  C        14.1123299422        8.3694657646       15.1817824487
  C        13.6384949607       10.5222305508       16.2813446566
  H        14.1887459643       10.6819669916        0.5750327035
  H        13.9144048594        9.3040199630       -0.2588003255
  C        12.6575571541       10.8660081894       -0.8541105840
  H        18.7002093544       17.4655086547       -0.2582934165
  C        19.0756309795       15.9030199130       -1.5857207495
  H        11.1990595839       15.3997571511       10.2349992855
  H        11.0990223208       15.5103635269       11.8916602648
  C         9.9029845165       13.9256352816       10.9018315375
  H        18.9339905725       14.9336260035       12.4481911597
  H        18.1481828178       14.7751569619       13.9323104416
  C        19.6359739995       13.3068816926       13.6459807666
  N        14.3599839941        7.4561611548       14.0780495376
  C        13.9430101484        7.6973585777       16.3604618787
  C        13.3374320830        9.8653827045       17.4663456457
  H        13.4949821187       11.5746632929       16.2590275935
  H        13.0905933056       10.3901783903       -1.7671563023
  H        13.1126625717       11.7680560244       -0.8592775914
  H        11.5775280547       10.9518456152       -0.7581440079
  S        19.3192106026       14.3201271216       -2.2167527856
  C        19.1973473458       16.9848430248       -2.6622663890
  H        10.2910632718       12.9289196862       10.5251545722
  H         9.5038357075       13.7422482303       11.8764095907
  C         8.7825274786       14.5759644344       10.0612196245
  H        20.0923448005       12.7436367490       12.8850929500
  H        19.1936942591       12.5205269064       14.2695362055
  C        20.5848082867       14.1021961366       14.4904513175
  S        14.3749858749        5.9227429935       14.6850392226
  N        13.9915529407        6.2921571535       16.2370176902
  C        13.5027908988        8.3826874016       17.5273945593
  H        12.9607102538       10.4092870545       18.3359291941
  C        19.6143473304       15.0760918262       -3.8071327840
  N        19.6049327949       16.4228912254       -3.8490125264
  O        19.2058220684       18.2086797630       -2.4388078624
  H         8.0393147690       14.9504818177       10.7907123525
  H         9.2105939743       15.4224446378        9.5961939786
  C         7.9703950506       13.6629588000        9.1052345772
  H        19.9369072872       14.7695988352       15.1365078778
  H        21.1863253315       13.4390899935       15.1543138268
  C        21.5514242380       15.1132421074       13.7042413959
  C        13.1492170816        7.6098305543       18.6430005510
  S        20.2871060735       14.1965902468       -5.2073865573
  C        19.9460356266       17.1203884114       -5.1066185590
  H         8.6318458218       13.4908253731        8.2413137473
  H         7.8391078533       12.6238862549        9.5308860246
  C         6.7029271436       14.2467818591        8.6538736038
  H        21.0417930006       15.5122027461       12.8398136657
  H        22.4680438079       14.6184474640       13.3278300620
  C        22.2621675618       16.2397970209       14.4892789539
  H        13.2659370624        6.5478176742       18.5184359645
  C        12.6408264094        7.8899272156       19.9106421629
  H        20.5971573930       16.6478589167       -5.8381022093
  H        20.4861529570       17.9954028770       -4.8033047559
  C        18.6125956554       17.4682945134       -5.7049134140
  H         6.4918497032       13.5663696937        7.8264580393
  H         6.9174783457       15.2384132943        8.3830636918
  C         5.5553291035       14.1923797983        9.6397070815
  H        22.5941496267       15.8550509586       15.4582230033
  H        23.1995867351       16.5552419062       14.0482489618
  C        21.3671502519       17.4011886890       14.8749165376
  S        12.1290743554        9.4098749280       20.6094598243
  C        12.4837242323        6.7853101967       20.8345898711
  H        18.1814773864       16.4745330400       -5.8612929820
  H        18.5475970595       18.0756562435       -6.5823351461
  H        18.0166179612       18.0437545869       -4.9959942858
  H         5.3740263308       13.1359097127        9.9952192894
  H         5.7976846168       14.7723084326       10.5919005915
  H         4.5853538307       14.5343420260        9.2247681711
  H        21.8832954531       18.0564609014       15.5615715290
  H        21.1481913797       17.9925158062       14.0000941462
  H        20.4162330224       17.0796455854       15.2094022696
  C        11.8157502234        8.5048817640       22.1042042230
  N        11.8794788778        7.1417604804       21.9690155550
  O        12.8266771294        5.6592012993       20.5333609797
  S        10.9674734466        9.2602302838       23.3575089856
  C        11.6138472264        6.2258647188       23.0434677255
  H        11.2514213430        5.2136547838       22.6324489635
  H        10.7711463552        6.5491846859       23.6617366946
  C        12.8640120976        5.9075601604       23.8367544161
  H        13.6965980373        6.5848416535       23.6766104776
  H        13.0246723992        4.7938319218       23.8454555101
  H        12.5839172930        6.0786200203       24.8521333907
