352
 i =    37600, time =    37600.000, E =        25.1232256912
  H        11.6578824364        7.0375527881       32.5460845099
  C        11.3194752921        6.0700713294       32.3500366896
  H        12.1895251263        5.4926758992       32.1786425193
  C        10.2692979938        5.9441239035       31.2495708938
  C        10.7274701507        5.5516938237       33.7100037266
  C        10.8376589340        6.1771393130       29.8323551122
  H         9.7523694899        4.9563138694       31.3119392968
  H         9.5919096987        6.7334597105       31.4187958532
  H         9.8833158779        6.1217642558       34.0287331684
  H        10.5493957173        4.4941154204       33.6122057394
  H        11.4822993707        5.6034400250       34.4754813032
  C        10.1241370818        5.3869190576       28.7571848392
  H        11.9148771887        5.8404971910       29.7618424206
  H        10.9075639970        7.2162422826       29.4809596294
  C        10.6155033997        5.7037090242       27.3614159359
  H        10.0184229984        4.3511546451       28.9628529221
  H         9.0891242619        5.7258429839       28.6368082055
  C         9.6390629579        5.1571587343       26.3317939513
  H        11.5314862335        5.2233743657       27.2935435618
  H        10.7557131465        6.7346827206       27.2010223414
  C         8.4046385424        6.0066390802       26.0403273570
  H        10.1689040274        4.9248012514       25.4204812452
  H         9.2349994962        4.2087609426       26.6679054694
  C         7.2214129995        5.3061492990       25.3653715675
  H         8.0437470860        6.4497532691       26.9694196047
  H         8.8102587375        6.7519321494       25.3860640132
  C         6.8609882451        4.0085103090       26.0716322223
  C         7.6007600586        4.5828016844       24.1552245958
  C         5.8868738398        6.1214807196       25.1189852720
  C         7.0916119331        2.8629958618       25.2774362568
  C         6.2227233878        3.6436075561       27.2805431990
  C         7.5550810767        3.2256793660       24.0928906006
  C         7.9886574846        5.3054876353       22.9943134028
  H         6.1494787809        6.7848760644       24.2573484203
  H         5.6422728354        6.6240951706       25.9963185095
  C         4.5812527253        5.3504745470       24.6162273438
  S         6.8102972269        1.3978517842       26.0557343736
  C         6.1585412506        2.2865983847       27.3887189834
  H         5.9341103441        4.4855210995       27.9133425001
  C         7.8831256172        2.6008377938       22.9198694890
  H         8.0196156056        6.4025226692       23.1320584563
  C         8.3891291905        4.7088282523       21.8675800290
  H         4.6911107075        4.8652034374       23.6156087585
  H         4.4137923431        4.4944311708       25.2545775025
  C         3.2787905316        6.2245967911       24.8169474997
  C         5.7324526797        1.5989616659       28.6355322482
  C         8.3077927174        3.3665905137       21.7648016846
  H         7.8625896023        1.5640551543       22.8488521423
  C         8.8230643401        5.1098606674       20.6388282865
  H         2.5375682999        5.7019950878       24.1833314231
  H         3.3513037471        7.1773659626       24.3029624484
  C         2.8030321773        6.2999516927       26.2597115298
  C         5.8169869077        0.1883730948       28.9183669180
  C         5.5344021988        2.4615521623       29.8191707216
  C         8.6762420924        2.6692907207       20.4792127616
  C         9.0435729884        4.0187493690       19.7970065128
  S         9.2315192028        6.5871950019       19.8636175118
  H         1.9541790988        6.9461036731       26.1988359317
  H         3.6103493751        6.7164203687       26.8391082587
  C         2.4728628713        4.9795150755       26.9368042653
  N         6.1675772268       -0.8487346113       28.0244102489
  C         5.5671563149       -0.3353656419       30.2005706933
  C         5.2324064808        2.0060072600       31.1024979309
  H         5.4905254938        3.5393499323       29.6704972439
  C         7.4705779565        1.9976310532       19.7890369914
  C         9.9075131906        1.8020026981       20.5722364638
  C         9.5194026119        4.3412540266       18.5480723936
  C         9.5729172504        5.7152409220       18.4095983793
  H         1.7686663928        4.4384009078       26.1930752142
  H         3.2970653103        4.3263568704       26.9459760205
  C         1.9264044721        5.1492491629       28.3283605322
  S         6.0579898100       -2.2792189122       28.8247324159
  N         5.6180416416       -1.7396101847       30.2364080744
  C         5.1899141482        0.5419107692       31.3052565938
  H         4.9815317031        2.6145758883       31.9073002226
  H         7.0202173537        1.3247905105       20.4507279737
  H         7.8566047848        1.4292540350       18.9977203306
  C         6.3344550603        2.8813838649       19.2749836733
  H        10.1581082171        1.6157497252       19.4889903013
  H         9.7037375443        0.9235679556       21.1064550425
  C        11.0950402875        2.5156331673       21.1850189039
  H         9.6385919578        3.5810156207       17.7923920193
  C         9.8473699111        6.2922840395       17.0758771285
  H         1.6149432249        4.1903327373       28.7526001380
  H         1.0796883107        5.7772477479       28.1847052476
  C         3.0107921220        5.6852073718       29.3148442869
  C         4.9777088627       -0.1242692659       32.5809749807
  H         6.4466765140        3.0297920343       18.1663343304
  H         6.2767864992        3.8495459292       19.7071571215
  C         4.9180489799        2.2191815258       19.5525496709
  H        10.8955750011        2.7425170499       22.2208405977
  H        11.2764530088        3.4896548805       20.8030557679
  C        12.3752707960        1.7653817039       21.1328710842
  C         9.9354196415        7.7129944826       16.8561830323
  C        10.2288342222        5.4171990175       15.9146202590
  H         4.0319650983        5.3276123885       29.0838293063
  H         3.0268055601        6.7370443912       29.2747325512
  C         2.8327145385        5.1637232210       30.7709186460
  H         5.1309652126       -1.1700252094       32.6326035358
  C         4.6799838161        0.3005288093       33.8258027147
  H         4.1816694364        2.8301400096       20.1009043422
  H         4.9726044558        1.2763998787       20.0856648439
  C         4.2645945800        1.9497268803       18.2324166208
  H        12.5247109810        1.1881755391       22.0320851714
  H        12.3693073252        1.0017409411       20.3259229112
  C        13.6814099958        2.6583556593       21.1116930981
  N         9.7014803957        8.7559466147       17.7829157493
  C        10.3210901179        8.1949628314       15.6066537760
  C        10.5898482937        5.9617278010       14.7381801096
  H        10.3912375567        4.3230475860       16.0224312923
  H         1.8005591963        4.9570359882       31.0331456039
  H         3.4550069037        4.3422137285       31.0866790213
  H         3.1054614323        5.9803593704       31.4742808715
  S         4.4171787539        1.9042366523       34.2969585633
  C         4.5894940080       -0.7372315250       34.8868358904
  H         4.5357941829        2.7775971848       17.5975097967
  H         4.8047025167        1.1624154231       17.7943820850
  C         2.8002241321        1.5929799701       18.1808340341
  H        13.5511319841        3.5620069466       20.5286491383
  H        14.3574666559        1.9733002426       20.5482218643
  C        14.1987483407        2.8792295662       22.5446370087
  S        10.0225269392       10.1895376891       16.9772267035
  N        10.2874272450        9.5931249303       15.4989492802
  C        10.6057599932        7.4157043038       14.5046040748
  H        10.9453114131        5.3617092951       13.8793176227
  C         4.1852166221        1.2497667382       35.9422708225
  N         4.1418923210       -0.1265008332       35.9685031907
  O         4.6086021247       -1.9595762694       34.7484990405
  H         2.4051374448        1.7561090340       17.1860604769
  H         2.3194221522        2.2381776546       18.9131714790
  C         2.5509384473        0.0560811390       18.3470143796
  H        14.8430766304        3.7530700887       22.4943047642
  H        13.3570109854        3.0684770417       23.2487415042
  C        15.0065519134        1.6800232973       22.9996933904
  C        11.0029212339        8.1432074463       13.3155022408
  S         3.6744279854        2.0986866031       37.4238780102
  C         3.9740674222       -0.8493049100       37.2472536645
  H         3.3041256732       -0.3759775388       19.0192187614
  H         1.5338201039        0.0444988902       18.7990160983
  C         2.7984123082       -0.6491084525       16.9644056300
  H        15.2830830678        1.0027412246       22.1757951238
  H        14.3221827503        1.0381459569       23.4940690718
  C        16.2276715273        2.0530912167       23.7590869257
  H        10.6336864855        9.1505088613       13.3030011349
  C        11.5145239737        7.8405149708       12.0609589028
  H         3.2053984727       -0.4274097448       37.9009047186
  H         3.5713755437       -1.8697598517       37.1199177221
  C         5.2857548722       -0.8978057284       38.0435805673
  H         3.8297953691       -0.5744216182       16.6426542848
  H         2.2325103013       -0.0947402462       16.2186435811
  C         2.3974194292       -2.1086039206       16.9087704492
  H        16.0509488656        2.4453630342       24.6995904150
  H        16.6588940654        1.1428554037       24.0551505539
  C        17.2720823582        2.7405369010       22.8058902336
  S        12.1913663992        6.3084149609       11.7506779866
  C        11.5402763311        8.9134979874       11.0417362495
  H         5.2932829038       -0.0865774095       38.7871720572
  H         5.2251933043       -1.8724383370       38.6046124506
  H         6.2863651656       -0.9350779069       37.4892593773
  H         3.2656087439       -2.7390294300       17.0692009329
  H         1.8800591938       -2.2807515790       15.9895956655
  H         1.6955127686       -2.3094229138       17.7551813741
  H        18.2266438427        2.5792274148       23.2739123533
  H        17.0684105641        3.7863664328       22.7796888214
  H        17.1869739062        2.2804923890       21.7710781492
  C        12.5963368483        7.0936834396       10.1930635898
  N        12.2580269783        8.4138239519       10.0158675818
  O        10.9727332175        9.9648679488       11.1301152052
  S        13.1253180361        6.2300311033        8.7289707518
  C        12.3054041979        9.1313308998        8.7262855888
  H        12.3564923038       10.1360903763        9.0354073283
  H        13.1737606210        8.9034338048        8.0948159654
  C        11.0566310637        8.9849236765        7.8838228487
  H        10.2276825199        8.7299790271        8.4958911660
  H        10.7259305263        9.8102235325        7.3101420332
  H        11.1769628546        8.1234879338        7.2569893446
  H        20.7198929164       10.6190849269        3.5636753923
  C        21.4724460450        9.8425081240        3.5490313754
  H        21.0796070387        8.8271753553        3.7795145868
  C        22.3527817387       10.2590853402        4.6291262725
  C        22.1429244714        9.8941943860        2.2106389340
  C        21.6035166576       10.4106791694        5.9488738157
  H        23.0971756267        9.5665575657        4.6878312600
  H        22.9135451384       11.1372722301        4.3823653866
  H        21.4285308290        9.3699383272        1.5829691606
  H        23.1684350139        9.4558524485        2.2085260201
  H        22.1634884112       10.9665033045        1.9246902647
  C        21.0071144041        9.0516288216        6.3849854968
  H        22.3414067811       10.7905757567        6.6702566474
  H        20.6770528582       10.9895729219        5.7773378660
  C        20.2931128346        8.9302225087        7.7609711300
  H        21.6692969066        8.1418174136        6.3361971685
  H        20.2921328776        8.8847703393        5.6526268533
  C        19.0968666937        9.8283332342        7.9525463848
  H        20.8786526124        9.3601517795        8.6360906721
  H        19.9611128546        7.8575048693        7.9037805331
  C        17.7945512963        9.1894176389        7.4680640236
  H        19.0168163081        9.9754875256        9.0439275203
  H        19.2701665347       10.8211750995        7.5725345149
  C        16.7417552537       10.2639721413        7.1422238963
  H        17.4012288198        8.5352506666        8.1910185144
  H        17.9325010542        8.4485444471        6.6332229156
  C        17.1770188961       11.5684758279        6.4422283901
  C        16.1987464234       11.0417901391        8.2968756960
  C        15.5956126358        9.6371676054        6.3087697610
  C        16.8333472668       12.7077614576        7.1356329820
  C        17.7436087390       11.8811105507        5.2208979230
  C        16.2580727148       12.3753265031        8.3556456149
  C        15.7078709314       10.4257226094        9.4164994042
  H        16.0421879902        9.3589275871        5.3289028204
  H        15.1910736881        8.7255768727        6.8269737063
  C        14.4058603541       10.4727810795        5.9936829583
  S        17.1914870555       14.1914322997        6.3595629295
  C        17.8799206393       13.2733639343        5.0032196969
  H        18.1746653837       11.0640708722        4.5797508053
  C        15.9085871715       13.0917329122        9.4614911360
  H        15.5431781764        9.3250485517        9.3787191255
  C        15.4325040072       11.1327684217       10.5451042732
  H        14.7670134529       11.4191771126        5.5262831339
  H        14.0153380988       10.6905916225        6.9707148102
  C        13.2729959970        9.8879999034        5.0589567304
  C        18.1089939853       13.9697290368        3.7236983406
  C        15.5209342468       12.4915477109       10.6527234058
  H        16.0940115560       14.1417561127        9.4647218085
  C        14.9215323980       10.8253854573       11.8037202732
  H        12.4630686553       10.5999871237        5.1189371831
  H        12.9942850140        8.8754902452        5.3710930216
  C        13.8761559477        9.9086508739        3.6334883108
  C        18.1487329848       15.3542448097        3.3987341062
  C        18.5637700180       13.1805424789        2.5342653852
  C        15.1630454181       13.2716130015       11.8454583591
  C        14.8447350752       11.9606045410       12.5465689780
  S        14.5099930367        9.3232303582       12.6421859349
  H        14.6255686204        9.0646700093        3.6530853757
  H        14.3442024595       10.8579308825        3.4459892376
  C        12.7659147491        9.6710368083        2.5686128538
  N        17.7702884721       16.3654656662        4.3245714025
  C        18.3627786126       15.9454524154        2.1363348112
  C        18.8953566583       13.7437195990        1.3420545134
  H        18.7120656344       12.1282296165        2.7894042080
  C        13.9681795670       14.1940910402       11.5468311017
  C        16.4236598442       13.9285215096       12.4983544275
  C        14.4258467629       11.6653547857       13.8679663976
  C        14.3175565885       10.3016648015       14.0704708619
  H        11.9480442547        9.0274317092        2.9310570726
  H        12.3449431607       10.6726366152        2.3806793247
  C        13.3919665538        8.9665358909        1.2633046478
  S        17.6306535169       17.7756967822        3.5447814762
  N        18.1817333691       17.3030378917        2.0833423354
  C        18.7350512423       15.1682829644        1.0439491615
  H        19.0273223125       12.9903222168        0.5743267261
  H        14.3883081909       14.9645941775       10.8969611567
  H        13.6564468491       14.5576447826       12.5584603294
  C        12.7369156025       13.4040290751       10.9374751659
  H        16.9071381728       14.5506262474       11.7785159184
  H        16.2060574877       14.5966017275       13.2873125706
  C        17.5119102788       13.0136714117       12.9532850661
  H        14.2576760341       12.4055582356       14.6174576661
  C        14.1131171836        9.5608952131       15.3681991527
  H        13.3834132748        7.8926570673        1.3670686028
  H        14.4357629337        9.2486332886        1.0574449344
  C        12.6057004617        9.3204090268        0.0338765115
  C        19.0246830679       15.8072882620       -0.1281939364
  H        13.0071470355       13.0740942810        9.9601777159
  H        12.4783655867       12.5437627823       11.5487985247
  C        11.4766017359       14.2415848346       10.7671161570
  H        17.8640368811       12.3935489544       12.0907091960
  H        17.0913609740       12.3679721907       13.8141688486
  C        18.6629699086       13.9734162117       13.4965464467
  C        13.9547523261        8.1771901236       15.5473405156
  C        14.0327161422       10.3626597027       16.6638703124
  H        12.2424860121        8.5341885716       -0.6078537742
  H        11.7256770339        9.7974057737        0.4134397914
  C        13.2811290442       10.2588012479       -0.8716924925
  H        19.1632177409       16.9014423881       -0.1205167884
  C        19.3140563881       15.3110085837       -1.4016055160
  H        11.7140356210       14.9032485096        9.9590614325
  H        11.3213257374       14.8232069210       11.6271302432
  C        10.3752830965       13.1563168932       10.4290052532
  H        19.3710345873       14.2788848984       12.7206992154
  H        18.3093282571       14.9253767488       13.8252137744
  C        19.4285598583       13.3917225432       14.6867621224
  N        14.1485197124        7.2257115895       14.5652022950
  C        13.6704008579        7.6496391317       16.8121061089
  C        13.7058334516        9.8271312970       17.8468964873
  H        14.2113284724       11.3977914954       16.5950563870
  H        13.5925629474       11.2385416205       -0.3634186632
  H        12.6985520701       10.4740209434       -1.8191354495
  H        14.1769249558        9.7222953583       -1.2605748500
  S        19.5890371950       13.7124333925       -1.9535519738
  C        19.3548106234       16.3741839731       -2.4849828801
  H        10.6613293005       12.5224972141        9.5557852131
  H        10.1812692490       12.4642210224       11.2464363019
  C         8.9996016616       13.8583629160       10.1355603308
  H        19.8025557301       12.4384208228       14.4801428721
  H        18.6832966130       13.1056750388       15.5001881849
  C        20.7112213936       14.1519718850       15.1102140991
  S        13.9041250905        5.7246489348       15.2530238855
  N        13.4997298206        6.2119702101       16.7737478450
  C        13.3590340357        8.4008375668       17.9416417443
  H        13.6830281348       10.4933207257       18.6900192065
  C        19.7498952940       14.3598534885       -3.6157205142
  N        19.6500330834       15.7345914476       -3.6562407792
  O        19.1652626296       17.5529577656       -2.2331254590
  H         8.5834743665       14.1801782494       11.1394289241
  H         9.0638090224       14.9453734373        9.7457898942
  C         8.0388031192       13.1193173068        9.2116694255
  H        21.2329463525       13.5376938182       15.7903483504
  H        21.4025740686       14.1690233565       14.2723421323
  C        20.4680397801       15.4839977753       15.7154348308
  C        13.0190496035        7.7184337369       19.1823642670
  S        20.0630334493       13.4651525630       -5.0874566258
  C        19.6198874621       16.4230462006       -4.9271014739
  H         8.6030432791       12.7419670237        8.3485674428
  H         7.5860670687       12.2912325878        9.8027722084
  C         6.7802124983       13.9076005893        8.7124515548
  H        19.8476339943       15.3645707014       16.6245337820
  H        19.9323599886       16.1119401796       14.9776308599
  C        21.7550147304       16.2338263810       16.1109434763
  H        13.4171243953        6.7369451427       19.1623473828
  C        12.4573352025        8.1527509679       20.3223730216
  H        20.1262053823       15.9523641737       -5.7913619562
  H        19.9464973842       17.4619764291       -4.7894711869
  C        18.2195247537       16.5635546781       -5.4375662139
  H         6.4049270652       13.3190624556        7.9612055059
  H         7.0578464048       14.9539521078        8.2971362839
  C         5.8417868465       14.0697518059        9.9656450020
  H        21.5115711407       17.0174025963       16.8560387311
  H        22.5341648724       15.6089763844       16.4980517539
  C        22.4375778180       16.8424672688       14.8593052739
  S        11.7422518263        9.7188417153       20.5135973690
  C        12.3081488329        7.1885798236       21.4471984889
  H        17.6641911672       17.4854808683       -5.1849201200
  H        17.5909714215       15.7498397503       -5.0183801048
  H        18.1598298756       16.5522274185       -6.5479386336
  H         5.0173837871       14.7569102681        9.8319461541
  H         5.4525287407       13.1158344770       10.3548544572
  H         6.4189891239       14.3928174959       10.8384529851
  H        22.9197391629       16.1026524539       14.1673592315
  H        21.7343006082       17.4100415206       14.1974091318
  H        23.1431459576       17.5917715722       15.2590905095
  C        11.2940722214        9.1345963531       22.1421130689
  N        11.5166316097        7.7936317230       22.3836753994
  O        12.7527946242        6.0387976503       21.4435374107
  S        10.5049955455       10.1837585384       23.4700531001
  C        11.2226227286        7.0961125862       23.6440138678
  H        11.1786327992        6.0000189722       23.5637712010
  H        10.2397245659        7.2892233502       23.9190991390
  C        12.2421513391        7.4595325701       24.7505327882
  H        13.1775706519        7.8538954118       24.3879250207
  H        12.5670592226        6.5339199269       25.2939027319
  H        11.7054826993        8.0493549896       25.4931538555
