352
 i =    95900, time =    95900.000, E =        25.1797900466
  H        10.1613471483        5.3486679728       31.4076979835
  C        10.7064443590        6.2401418502       31.8561454959
  H         9.9574614080        6.9181568298       32.2661304323
  C        11.4276070880        6.9979981926       30.7176222535
  C        11.6487919777        5.7659108259       32.9372279686
  C        11.8562494289        5.9935373626       29.6804563438
  H        10.8083261599        7.7415232787       30.1852891132
  H        12.3184578625        7.4368412494       31.0657847264
  H        12.4920168452        5.1977559533       32.5697037513
  H        12.0192767688        6.6013421985       33.5388155998
  H        11.1588252013        5.0368631900       33.5833077993
  C        10.6549813911        5.4991087718       28.9057047791
  H        12.2834949053        5.1478472678       30.1095949397
  H        12.5585909078        6.3434741473       28.9417338744
  C        10.9537287699        5.7765663760       27.4140477209
  H        10.5700727636        4.3737654945       28.9812984493
  H         9.7385772931        5.9315271797       29.3255431344
  C         9.9640519544        5.1113324803       26.4500584260
  H        11.7982040936        5.2655624091       27.0563558875
  H        10.9610984618        6.7579085957       27.0925738425
  C         8.7470030522        5.9466242270       26.2921251996
  H        10.6145035412        5.1195214831       25.5705799479
  H         9.8833406210        4.1000705893       26.6496392721
  C         7.6427809135        5.2112926363       25.5215352228
  H         8.3973782916        6.1363094812       27.2684014185
  H         9.1193277356        6.8431789036       25.8152334687
  C         7.2401974930        3.8977502658       26.1823216101
  C         8.0795282631        4.5245335339       24.2840001963
  C         6.4747761886        6.1764263101       25.1379687407
  C         7.4709988404        2.8204728472       25.3410584927
  C         6.7244929904        3.4998217734       27.3773976036
  C         8.0031951520        3.1764456804       24.1040030745
  C         8.5370923464        5.1894154554       23.1966030644
  H         5.8849321051        5.5784735597       24.4330609502
  H         6.8721056553        7.0181939898       24.6254830810
  C         5.7580917874        6.7596311940       26.3415602200
  S         7.0311965452        1.2880655893       26.0010162583
  C         6.5717491281        2.1778573617       27.4638981940
  H         6.5302998652        4.3138298654       28.0467869811
  C         8.3820901356        2.6094784653       22.8907725650
  H         8.5673026229        6.2456029454       23.3193666301
  C         8.9158139597        4.6136833624       21.9908322075
  H         5.7076331030        6.0118325067       27.1034636536
  H         6.3067503436        7.6486038789       26.6276176273
  C         4.3452127816        7.1391916248       25.8899911148
  C         6.1506983570        1.4293603830       28.7402352891
  C         8.8930429253        3.2890481305       21.8366554383
  H         8.3541116994        1.5352108610       22.7577109541
  C         9.3571781064        5.0275415360       20.7322342603
  H         3.9976411736        6.3714053016       25.1870695169
  H         4.2645267964        8.0722597428       25.2881672087
  C         3.3691328216        7.1710930400       27.0251496755
  C         6.1994762701       -0.0119842442       28.9582908243
  C         5.5334430634        2.2123469850       29.8432454043
  C         9.2919866981        2.5899724011       20.5728677480
  C         9.6064879543        3.9139285986       19.8957698611
  S         9.6381033074        6.4874182862       19.8774358465
  H         2.7603950329        8.0090359357       26.8123062436
  H         3.9700440980        7.4828797154       27.9199729210
  C         2.5794053507        5.8434677457       26.9697585073
  N         6.4304136509       -0.9270470083       27.9239004543
  C         5.8160036843       -0.6038953050       30.1619770482
  C         5.0986264549        1.6088659611       31.0388195588
  H         5.6407959548        3.2891964718       29.7859693947
  C         8.1544808516        1.7921025037       19.8502960284
  C        10.6392079521        1.8774342407       20.7054056292
  C        10.0457592749        4.2560982876       18.6038215501
  C        10.0160256919        5.6011914174       18.4287029658
  H         1.9993069168        5.7367675484       26.0552486368
  H         3.2845922102        4.9973909038       26.8728061552
  C         1.6704098404        5.5316268886       28.1136280201
  S         6.3632699696       -2.3660619484       28.5177806111
  N         5.9157504193       -2.0378011378       30.0661860045
  C         5.3631784044        0.1541991198       31.2702457260
  H         4.7998551561        2.2615936394       31.8611415755
  H         7.8203501945        0.9771158310       20.4973775926
  H         8.4745825110        1.2004160897       19.0191986040
  C         7.0110664890        2.5770411992       19.2417073736
  H        10.8416827768        1.3803607551       19.7692292504
  H        10.5847542910        1.1486983017       21.5421202911
  C        11.7642870996        2.7534179209       21.1529803449
  H        10.3151555612        3.4884235817       17.9221966959
  C        10.3470219665        6.3005190539       17.1220515757
  H         1.1830041302        4.5978175185       27.9077289053
  H         0.8041617432        6.2526481582       28.1563641481
  C         2.4583137206        5.5890679366       29.4689590141
  C         5.0599124527       -0.5095395692       32.5332447417
  H         7.3626264903        3.1381699994       18.3642051516
  H         6.6932998081        3.2727809575       20.0665809947
  C         5.8591683483        1.5575979885       18.9109169000
  H        11.5460985347        3.3840245555       22.0467291508
  H        12.0450870802        3.3854524029       20.3150140160
  C        12.8985736027        1.8106502315       21.4343472426
  C        10.4242859500        7.7389221713       17.0200592650
  C        10.5450691364        5.5036089811       15.8958207982
  H         3.2318915882        4.8422551296       29.4913573313
  H         2.9834612050        6.5389237022       29.4640472205
  C         1.5538671380        5.7024831973       30.7276651773
  H         5.2279308717       -1.5983514306       32.4386346637
  C         4.7971198805        0.0361307789       33.7847005158
  H         5.5323134717        1.0903534580       19.8033967439
  H         6.2156273567        0.7668057250       18.2705044999
  C         4.6874145468        2.1612880435       18.1589513215
  H        12.4813745815        1.0683058675       22.0817699543
  H        13.2168928755        1.4598184621       20.4842909895
  C        14.0211840889        2.5806349473       22.1027412030
  N        10.1664854805        8.6903855307       18.0315650169
  C        10.6543551655        8.3365273455       15.7546055316
  C        10.9411805610        6.0713306874       14.6603628323
  H        10.3923771949        4.4459698587       16.0354770092
  H         1.1116095202        4.7562286770       31.0608700284
  H         2.1720726940        6.0420449786       31.5411722517
  H         0.7638301073        6.4582687904       30.6067809291
  S         4.4415602644        1.7331429245       34.2014237260
  C         4.9160035344       -0.8728098105       34.9076867746
  H         4.6881671672        3.2798050231       18.0756515745
  H         5.0272108138        2.0211398159       17.0741632653
  C         3.3899423467        1.4015589071       18.5371474301
  H        13.4927815001        3.1482521095       22.9368488568
  H        14.3645008983        3.3516602070       21.3584091798
  C        15.0783786156        1.6665536512       22.7506110100
  S        10.2964687953       10.1808258794       17.4772066531
  N        10.6277398291        9.7305630653       15.8526147754
  C        10.9169908293        7.6005122613       14.5473546449
  H        11.1143819698        5.4463546339       13.7532708602
  C         4.3498415652        1.1407843445       35.8158630622
  N         4.5205984097       -0.1957824995       36.0597145880
  O         5.2039234077       -2.0664460710       34.7275237757
  H         2.5845591554        2.1794370326       18.3752656911
  H         3.3854153080        1.2659171546       19.6605382309
  C         3.2369360437        0.1294763636       17.6185843678
  H        14.6326914371        1.1069700830       23.5272046747
  H        15.5276022669        0.9593643518       22.0599539348
  C        16.2478732230        2.6123822093       23.3036252214
  C        11.2741061930        8.3562434710       13.3500944444
  S         3.7867605774        2.1449743518       37.1083257727
  C         4.4370588292       -0.7714941733       37.3248470243
  H         3.3308303178        0.3219959889       16.5257867485
  H         3.9923673705       -0.5859465564       17.8653942399
  C         1.8651380554       -0.5463474007       17.8797722891
  H        15.7944408403        3.0341784105       24.2847495745
  H        16.4750676763        3.3849954076       22.5313689682
  C        17.4989466380        1.7497941116       23.6844360662
  H        10.8462521700        9.3933165714       13.3670108427
  C        11.8497050221        8.1532367720       12.1141897884
  H         3.6797511654       -0.2649161718       37.9762208382
  H         4.1261174685       -1.8281629568       37.2590064298
  C         5.8049219382       -0.8663480838       37.9237591468
  H         1.6089718819       -1.0547127453       16.8683101665
  H         1.1660248598        0.2016233817       18.0228082989
  C         1.9487482268       -1.5777806637       19.0146874510
  H        18.0859479891        2.4005668799       24.2937230673
  H        17.2446572343        0.8622303757       24.2787556238
  C        18.2931170204        1.3018839213       22.4752004299
  S        12.5827327658        6.6671617840       11.6155633755
  C        11.6545100780        9.2198512426       11.1119048779
  H         6.5860071205       -0.9282274100       37.1935823990
  H         6.0079595853       -0.1141764579       38.6852017859
  H         5.7413100503       -1.8245719227       38.3860194213
  H         1.2269247619       -2.3752330762       18.7359349275
  H         1.4670212370       -1.2117178717       19.9570131596
  H         2.9216549448       -1.9784827377       19.2510871121
  H        19.2419163880        0.9663676238       22.7422892328
  H        18.4631965831        2.1651160242       21.7932328869
  H        17.6554480601        0.6041702623       21.8698380884
  C        12.7475546390        7.5123414170       10.0695603741
  N        12.3501395301        8.8638937134       10.0332163462
  O        11.1142670396       10.3038528693       11.2739869290
  S        13.6549598295        6.8961570235        8.7121816223
  C        12.4167295650        9.6822158553        8.7736348929
  H        12.5246908782       10.6782567093        9.0938434659
  H        13.1657626754        9.4981960798        7.9155073036
  C        11.1307675127        9.5802429114        7.9692837648
  H        10.4291456250       10.3077679755        8.3411787730
  H        11.2484430947        9.8740123594        6.9128842525
  H        10.6824583910        8.6064134850        8.1027883430
  H        21.8619404037       11.4021143668        3.5688644429
  C        22.4349039261       10.4315141449        3.5336189798
  H        21.6676665775        9.6341545127        3.5818742615
  C        23.4119660135       10.4524972997        4.7123720000
  C        23.2466275358       10.4347179420        2.2080325503
  C        22.5957257958       10.4262150263        6.0354892967
  H        24.0320883922        9.5160167725        4.7236309501
  H        23.9861442695       11.3804903389        4.8004292104
  H        23.7530334795        9.5267764367        1.9672792140
  H        24.0655408565       11.1524075439        2.3694298775
  H        22.6407886899       10.7126924787        1.3197434314
  C        21.9759629746        9.0055878398        6.3633860753
  H        23.2424330818       10.6891761455        6.8563186654
  H        21.8500574787       11.2495942245        6.1012998080
  C        20.6988157079        9.0873217591        7.1218231186
  H        22.6981001466        8.4981907064        7.0186317643
  H        21.7951929876        8.4124530165        5.4573528517
  C        19.4443869828        9.5585391344        6.4194196275
  H        20.7031424866        9.6698891281        8.0148048363
  H        20.4231562204        8.0889095979        7.4434755187
  C        18.2549841935        9.8011708106        7.3571863035
  H        19.6759965513       10.4411109773        5.8350708473
  H        19.2694175162        8.8287821354        5.5859088951
  C        17.0657324247       10.7298304823        6.8526167506
  H        18.6051866106       10.4864092177        8.1896867505
  H        17.8997352749        8.8525217374        7.7853845196
  C        17.5348091973       12.0531353411        6.2709256866
  C        16.4924395107       11.3506306797        8.0889887023
  C        16.0339794869       10.1399758355        5.8919480237
  C        17.2380654068       13.1200440875        7.0738233163
  C        18.1780369637       12.4433728087        5.0401150723
  C        16.6473384230       12.6826793710        8.2604648457
  C        15.9465468886       10.6372294974        9.1985114490
  H        16.6475070426        9.7859391641        5.0604811841
  H        15.7059092461        9.1987788600        6.3748915102
  C        14.9733149267       11.0583839385        5.3795918569
  S        17.7222242464       14.6397781784        6.4292557287
  C        18.2285024685       13.8178358564        4.9451089400
  H        18.3430778935       11.6400195025        4.3235109557
  C        16.3059198180       13.2327947307        9.4981700748
  H        15.8222769627        9.5871638065        9.1950834764
  C        15.5912935757       11.2410443062       10.3797465871
  H        15.5740021996       11.8142411172        4.7333357078
  H        14.4602166340       11.4710282979        6.1993433891
  C        13.9801650981       10.3658602796        4.5208820975
  C        18.6867474388       14.5204602197        3.6617432837
  C        15.7745027479       12.5597765140       10.6147178438
  H        16.5227900318       14.2993943742        9.6824632561
  C        15.2523892308       10.8524529494       11.6452413639
  H        13.1584246352       11.0690354036        4.4034652044
  H        13.5254580984        9.5149867144        5.0350928628
  C        14.5984306943        9.8943837927        3.2521332706
  C        18.4896265738       15.8846840986        3.4079986494
  C        19.1366151899       13.6763059964        2.4890193516
  C        15.4484013015       13.1968569834       11.8507131865
  C        15.1513039411       11.8911599844       12.5585447115
  S        14.8867934581        9.3631835124       12.3944746774
  H        15.3618923501        9.1167455585        3.3535830655
  H        14.9878975048       10.7575878001        2.7845977314
  C        13.6420714488        9.3078411776        2.1915346145
  N        18.1699883158       16.8199799811        4.3769236492
  C        18.5839770080       16.4215401635        2.1225335309
  C        19.1970760957       14.2657403514        1.2203224448
  H        19.4087810744       12.6335141163        2.5252617157
  C        14.2080729448       14.1161388654       11.6717429281
  C        16.6413307367       13.8910366368       12.5825455979
  C        14.7436181501       11.5077063259       13.8708326942
  C        14.5729266819       10.1544596864       13.9364052763
  H        13.4861254207        8.2113642116        2.2422464923
  H        12.7201623154        9.7498254376        2.4307490116
  C        14.0849566569        9.7769290954        0.8088472149
  S        18.2032544698       18.3299947303        3.6646587132
  N        18.5813895595       17.7996762862        2.1470439163
  C        18.9596700627       15.7251516814        0.9677042506
  H        19.3974018536       13.6527035078        0.3602221095
  H        14.3412191860       14.8198084768       10.9090268831
  H        14.0557620673       14.6934036020       12.5470977442
  C        12.8746795992       13.4362787813       11.2134297099
  H        16.8139925963       14.8771635698       12.0653856861
  H        16.3701408961       14.1980018086       13.6298395956
  C        17.9435352705       13.0582481507       12.7343740375
  H        14.5658562648       12.2855526184       14.6507568644
  C        14.2449657637        9.4355288833       15.1852222195
  H        15.1322758801        9.4485231088        0.5603096772
  H        13.9439892459       10.8367238105        0.7269736293
  C        13.1089558418        9.3174652822       -0.2244110501
  C        19.0490974068       16.3777480946       -0.3125126371
  H        13.0206041290       12.6165863091       10.5245780112
  H        12.5077124615       12.9113101694       12.1099166009
  C        11.8574111670       14.4440973165       10.6821294708
  H        18.4752653190       12.8998185573       11.7742071532
  H        17.7594469226       12.0113826429       12.9373307624
  C        18.8044730628       13.4464795886       13.9383792552
  C        14.2807332578        8.0338479445       15.3757337597
  C        13.9774435331       10.2056708907       16.4718259650
  H        13.4615960007        8.4887441379       -0.7889945700
  H        12.1380717596        9.0439209686        0.2331338197
  C        12.8577297252       10.4768184924       -1.2798555471
  H        18.8033115145       17.4324513259       -0.2347970937
  C        19.3737186902       15.9698223935       -1.5735325946
  H        12.3180161726       15.2282459911       10.0319778398
  H        11.4471643830       15.0570518692       11.5082380893
  C        10.7706992215       13.7399403181        9.9283660692
  H        18.1367667292       13.5902140187       14.7779320199
  H        19.5402904922       12.6719995175       14.2424816666
  C        19.5640524463       14.7984145914       13.7670497832
  N        14.4328163520        7.0974425255       14.3723057342
  C        13.9618495452        7.4477536610       16.5929148295
  C        13.7867850521        9.5688481203       17.7575080007
  H        13.8567282720       11.2708041808       16.4055695863
  H        12.0569862975       11.1937319989       -0.9438880761
  H        12.3845161048       10.1397138856       -2.2436750069
  H        13.7597190458       11.0344106247       -1.5075227093
  S        19.8997614359       14.3781627403       -2.0240818653
  C        19.1926575274       16.8826163576       -2.7592374070
  H        10.3304193486       14.5719083829        9.3696715865
  H        11.1659746176       12.9516168118        9.2784194860
  C         9.7885315649       13.1493649122       10.9507547506
  H        18.8773413960       15.6653838660       13.7496408015
  H        19.9419910569       14.9368852949       12.7086575730
  C        20.6590857890       15.0692688818       14.8544516086
  S        14.3252741444        5.5935711202       15.0335772605
  N        13.9464577250        6.0379387284       16.4873004084
  C        13.6548590541        8.1194949929       17.8629589342
  H        13.7405881435       10.2071829001       18.6026577319
  C        20.0726210009       14.9695119110       -3.7013336940
  N        19.6816718764       16.2500520623       -3.8555205709
  O        18.8339263823       18.0453432656       -2.6314029309
  H         9.4052281793       12.1685925526       10.7199995467
  H        10.1796338899       13.0552872437       11.9755707223
  C         8.5855039377       13.9403016791       10.9487725768
  H        20.1192041118       15.3700709540       15.7301974984
  H        21.2264287321       14.1490040016       14.9561566634
  C        21.6634427306       16.1504587365       14.4659807801
  C        13.2811342320        7.4288582608       19.0763814556
  S        20.4618659735       13.9572922658       -5.0156868873
  C        19.5522531814       16.9414734258       -5.1294979016
  H         8.1605425500       13.7925011291       11.8544827336
  H         8.9494138042       15.0071688184       10.9811703395
  C         7.6327643016       13.7707050765        9.7161088680
  H        22.1547607284       15.8574260793       13.5130869866
  H        22.4456381091       16.1210719276       15.2336540629
  C        21.2061158584       17.6045019537       14.3896374200
  H        13.6551960106        6.4498861901       19.1685099363
  C        12.7266653765        7.8614458427       20.2194238816
  H        20.3341198229       16.5204964765       -5.7568173019
  H        19.8342838865       17.9988661394       -5.0277349340
  C        18.1230325741       16.8494063720       -5.7481094665
  H         8.0971814038       13.4647684306        8.7877223995
  H         7.2228261608       14.7534220966        9.5897469566
  C         6.4593829224       12.8239600607        9.9185545475
  H        22.0889883892       18.1928328151       14.2449786470
  H        20.5726006136       17.7414867644       13.5104806107
  C        20.4447354567       18.0732882974       15.6237827216
  S        12.2620830050        9.4053911048       20.5538789111
  C        12.6119305234        6.9514815501       21.3621575816
  H        17.8843717338       15.8389917775       -6.0148257552
  H        17.9754877015       17.4570240950       -6.6646449534
  H        17.3692364314       17.0944887223       -4.9926819349
  H         5.7580860847       12.9210734179        9.0870828524
  H         6.6489345150       11.7758395094       10.0708492572
  H         5.9602930576       13.0509126842       10.8802388147
  H        21.0064136722       18.0894400821       16.5555888285
  H        20.1600018729       19.1364789228       15.4794671432
  H        19.5579828817       17.4769892175       15.7578211081
  C        11.9434607930        8.8086688816       22.1646269186
  N        12.0445187991        7.4950726313       22.4040530627
  O        12.9945899202        5.8059429403       21.3081495123
  S        11.1289510894        9.7859619220       23.4169589387
  C        11.9333154858        6.7406214114       23.6180605964
  H        11.9382974455        5.6723288117       23.4431831279
  H        11.0363557589        7.0698435374       24.1448907345
  C        13.1630231687        6.9823682767       24.5728728598
  H        14.0448742537        7.1362800775       23.9354246255
  H        13.2511284809        6.0925023917       25.2227281875
  H        13.0302761634        7.9006648249       25.1890814392
