352
 i =    34400, time =    34400.000, E =        24.6371117934
  H        11.8236327391        7.6372221952       32.5037216796
  C        11.9113315220        6.6377050576       31.9703254220
  H        12.9697969047        6.5510799381       31.7754508297
  C        10.9662299928        6.6842093478       30.7354257408
  C        11.5677702462        5.5221068706       32.9762672032
  C        11.4397254283        6.0777604155       29.4843666579
  H        10.0013088499        6.3182158477       30.8898021203
  H        10.7139544157        7.7608682616       30.6409734803
  H        12.3241205157        5.1176815341       33.6206988213
  H        10.6248899661        5.7288103651       33.5591601642
  H        11.3385124420        4.6670053814       32.3846425543
  C        10.3391613994        6.0983454985       28.4478683601
  H        11.6055927208        5.0712259981       29.8970015482
  H        12.4409808801        6.4450955752       29.1116987701
  C        10.8959973350        5.7137351584       27.0810989689
  H         9.4717656159        5.4500487323       28.7629816948
  H        10.1605766265        7.1285336291       28.4283094150
  C         9.7709342696        5.0902599056       26.2086430665
  H        11.6294455953        4.9247309529       27.1694906594
  H        11.3873434758        6.5157122315       26.5229759630
  C         8.5406255784        6.0210031232       26.0265297200
  H        10.1068806212        4.8377470648       25.1824645558
  H         9.5090445995        4.1498915063       26.7109696243
  C         7.3776161888        5.3044929923       25.2924875052
  H         8.1208240433        6.3174402325       26.9585302435
  H         8.8358783600        6.9402981650       25.6106865375
  C         7.1255125475        3.9367401236       25.9442622474
  C         7.8218453694        4.5269128760       24.0630788410
  C         6.0386463768        6.1123262921       25.1623523930
  C         7.2591992825        2.8325392459       25.1600479178
  C         6.7262863737        3.5597498038       27.2237156851
  C         7.7735819701        3.2004278409       23.9349464716
  C         8.2472910538        5.2174044961       22.9573254003
  H         6.4276462777        7.0096385072       24.6458905939
  H         5.8582320213        6.4386826551       26.2049049939
  C         4.8168564659        5.3806949972       24.5304063926
  S         6.9748832515        1.2970542297       25.9694767746
  C         6.6254543780        2.2041189728       27.3800118948
  H         6.5051900003        4.2747462891       27.9993165918
  C         8.1972597213        2.6313850106       22.7746950490
  H         8.2245642255        6.3328911253       23.0464611683
  C         8.6237310847        4.6750014222       21.7445455386
  H         5.0204483271        5.1181615396       23.4593149520
  H         4.6403294464        4.3688762260       25.0304075165
  C         3.5092065880        6.1236521704       24.6834382436
  C         6.2504168898        1.5493712574       28.6731933010
  C         8.6282816535        3.3367342527       21.6273739556
  H         8.1529714222        1.6177449129       22.5043162439
  C         9.0407332766        5.0595364530       20.5041592302
  H         2.8482271281        5.7465446156       23.9420707871
  H         3.7391471502        7.1496541872       24.4435959359
  C         2.8989489215        6.0338347351       26.1438109839
  C         6.2780241197        0.1501607596       28.9337174268
  C         5.7762693538        2.4806667648       29.7925403560
  C         8.9900000600        2.6135014522       20.3912094164
  C         9.3923783008        3.9588138588       19.7530305989
  S         9.2990766786        6.6008205109       19.7667823191
  H         2.1260397316        6.7986224211       26.2138744305
  H         3.5924827196        6.5183921426       26.8614710201
  C         2.2576635772        4.6521478125       26.6106028127
  N         6.7035436652       -0.9182642872       28.0651715267
  C         5.9530138880       -0.3017800326       30.1965960899
  C         5.4930412779        1.9391942809       31.0372012866
  H         5.7165950391        3.5092285639       29.6170167964
  C         7.8120491937        1.9647208198       19.5582240800
  C        10.2900784051        1.7704382941       20.5299958542
  C         9.7680400176        4.3798807815       18.4739183563
  C         9.7831043858        5.7501578104       18.3594343310
  H         1.6420067777        4.2460428365       25.8121315095
  H         3.1522217649        4.0162221583       26.7017419671
  C         1.4459261648        4.9082790058       27.9697734720
  S         6.6051702188       -2.3401463665       28.8397802081
  N         6.0777854410       -1.7476516516       30.2550795123
  C         5.5157192895        0.4717481530       31.2730079689
  H         5.2181781773        2.6433291053       31.8096705970
  H         7.5139613068        1.1224398438       20.1597810841
  H         8.3160347121        1.4953699883       18.6525350288
  C         6.7175973674        2.9821345396       19.2461634666
  H        10.5995167980        1.4334979722       19.5829073016
  H        10.0272804941        0.8518612181       21.0017422580
  C        11.4651871230        2.4346687648       21.2282809296
  H         9.7972280610        3.5882425848       17.7352741723
  C        10.0398773554        6.4343828061       17.0013639278
  H         1.0491990164        3.9190599955       28.4578114932
  H         0.4445098469        5.3366621267       27.8283742395
  C         2.1006226180        5.8420550289       29.0597952673
  C         5.2782407294       -0.1598694995       32.5317448582
  H         7.0599793672        3.9957010654       19.1053787179
  H         5.9951242274        2.9088330517       20.0428702739
  C         6.0326708280        2.3889155825       18.0228739276
  H        11.1732635360        2.8658448277       22.1527167342
  H        11.7117527874        3.2547764328       20.5844481027
  C        12.6678823955        1.4633011806       21.3420966857
  C        10.1550994373        7.7683609839       16.7556280453
  C        10.2492462355        5.5234824754       15.8217190083
  H         2.2353258004        6.8600452932       28.6376030923
  H         1.3900029379        5.8832615416       29.9024111021
  C         3.4845361546        5.2736242629       29.4407451534
  H         5.3113513280       -1.2493915727       32.4801960861
  C         4.9057620861        0.2065833359       33.8037902487
  H         6.1888875236        1.3093105389       18.0155325148
  H         6.4879894133        2.8439123905       17.1958929978
  C         4.5679162271        2.7417589403       18.0382472656
  H        12.5833379306        0.9479632094       22.3025084602
  H        12.6508420646        0.7098311265       20.4761726165
  C        14.0845687058        2.0606817784       21.3255328531
  N         9.9007440162        8.7374055194       17.7800423701
  C        10.4130020013        8.3490568648       15.5495318833
  C        10.5725979063        6.1131495811       14.5768530265
  H        10.2892321314        4.4949397051       15.9025342951
  H         3.8703145330        5.6544714692       30.3933835777
  H         3.4430355127        4.1860706409       29.4272698064
  H         4.1926939298        5.4412986060       28.7045763270
  S         4.7158717969        1.8014432383       34.4305063613
  C         4.6798997694       -0.8690365530       34.8490367526
  H         4.3329837126        3.6414323256       18.6566835255
  H         4.3769175489        3.0631253944       16.9995563808
  C         3.6205442958        1.6246627268       18.3800120367
  H        14.1629844716        2.6214195777       20.3936901332
  H        14.8286518751        1.2521722285       21.2490027680
  C        14.2398973804        3.0716652544       22.4102385436
  S         9.9969837875       10.2202017797       17.0494329149
  N        10.4802746769        9.7108708180       15.5973190920
  C        10.6919014875        7.6065404070       14.3896602713
  H        10.6998284433        5.4687872318       13.6935568156
  C         4.3095282426        1.0890801277       35.9858448800
  N         4.2641111940       -0.2667679173       36.0278078358
  O         4.7740393496       -2.0471654745       34.6306940146
  H         2.6949850806        2.2607742497       18.5550255418
  H         3.9279011973        1.2141514137       19.3059428300
  C         3.4366052273        0.5398515625       17.2330149658
  H        14.6685909131        4.0116583479       22.0688141489
  H        13.2205113878        3.2268223935       22.7545351162
  C        15.0637847606        2.5341527653       23.5724792952
  C        11.0032841974        8.3187300754       13.1677008850
  S         3.8991303963        1.9050190809       37.4207336145
  C         4.1239525500       -1.1037769750       37.2514824425
  H         3.0695866072        0.9981483985       16.2295593360
  H         4.4528307477        0.0203538961       17.0623942642
  C         2.5327754996       -0.5994335380       17.6187284732
  H        14.9162424992        1.5353361280       23.7647344410
  H        14.6868971444        2.9054965264       24.4919620231
  C        16.5253737906        3.0025096476       23.5107806363
  H        10.7452849491        9.4185043696       13.1296036717
  C        11.4828191670        7.9405617941       11.9633085037
  H         3.2833988025       -0.8020638930       37.8713581735
  H         3.9018331048       -2.1706990598       37.0189765123
  C         5.4991528240       -1.1932312746       38.0739669177
  H         1.5291191919       -0.1937715952       17.7387335810
  H         2.9337066572       -1.0048091829       18.5515656326
  C         2.5539754198       -1.7347492129       16.5688338304
  H        16.7849870898        3.9873057824       23.1024403884
  H        16.9133756365        3.1289642289       24.5073486218
  C        17.4907721615        2.0958545972       22.7472238806
  S        12.0634478634        6.4614386095       11.4958799923
  C        11.6817496648        9.0232878722       10.9375539751
  H         5.3350772705       -2.0321234846       38.7715815492
  H         6.3880052583       -1.4535080742       37.4290283076
  H         5.7802593253       -0.2957954796       38.6475096046
  H         1.8263806546       -2.5464249738       16.7765846535
  H         3.5701175991       -2.0752809380       16.4572196281
  H         2.2245393455       -1.1970305703       15.6823216499
  H        18.5302317042        2.2051625892       22.8805788307
  H        17.4509762602        2.2660758833       21.6179794711
  H        17.1622964965        1.0682578327       22.8528466260
  C        12.3519872932        7.0339037115        9.9146214248
  N        12.2219073625        8.3975003506        9.8796968741
  O        11.3720496442       10.1858971948       11.0467010330
  S        13.0883529778        6.0458893037        8.6166378347
  C        12.4394649380        9.1245474547        8.6344484683
  H        12.6813927674       10.1481787157        8.8310452844
  H        13.3761198195        8.7426677880        8.0406868118
  C        11.2238860687        8.9578740427        7.7503999396
  H        11.1012102396        7.9219889993        7.4304146810
  H        10.2074825346        9.1745955786        8.0328106290
  H        11.4071727707        9.3873438663        6.7843442376
  H        21.1131943231       11.4578149868        3.4502261353
  C        21.8815853548       10.7237449902        3.5090340463
  H        21.3365687728        9.8369756509        3.2679236724
  C        22.7128990171       10.7436057308        4.8230977835
  C        22.7714104092       10.7927806482        2.2222296612
  C        22.0006324372       11.0204178483        6.1244118773
  H        23.3622120989        9.8686266014        4.9243324118
  H        23.3636103426       11.5362959382        4.6926221451
  H        22.1935301679       10.8038004447        1.3522372127
  H        23.5337902947        9.9547794039        2.1022340963
  H        23.4569313818       11.6725798605        2.2804320282
  C        21.4543018296        9.7913159245        6.7443167642
  H        22.7066246301       11.4597735899        6.8634183263
  H        21.2374920143       11.7682086583        6.1508782056
  C        20.3827266347       10.0069851105        7.7969975104
  H        22.2877285331        9.1046421888        7.0122602587
  H        20.8372222714        9.2799114766        6.0275673802
  C        19.1399475326       10.8642650756        7.4090734740
  H        20.8189768172       10.5131248190        8.6728865102
  H        20.0238102963        9.0028189508        8.0950581619
  C        17.9360896129       10.1088924434        6.8150258874
  H        18.8929639447       11.4638445436        8.3367942540
  H        19.4231535185       11.5167445327        6.6428829048
  C        16.6442856608       10.9295785655        6.7260719942
  H        17.7362291594        9.3677605506        7.5628590676
  H        18.2110654531        9.5378118273        6.0022729346
  C        17.0140981064       12.3174845100        6.0963220863
  C        16.2173112028       11.6275991283        8.0000630628
  C        15.5188248102       10.0808868629        6.0268509578
  C        16.7762584081       13.3617015373        6.9689290512
  C        17.4452794626       12.7476190042        4.8921565520
  C        16.2466254948       12.9701482260        8.1229949360
  C        15.7393753857       10.8770225375        9.0982705683
  H        15.9814902812        9.7128769678        5.1164648637
  H        15.2002342605        9.2721757309        6.6156452934
  C        14.3551348941       11.0168134737        5.7255207453
  S        17.3948130979       14.8435060959        6.3515913198
  C        17.8394903351       14.0632802375        4.9039870141
  H        17.4095096556       12.0273340078        4.0813741114
  C        15.8998922373       13.5274586896        9.3456779528
  H        15.7520248050        9.8332457768        9.0351901933
  C        15.4253887091       11.4750469059       10.2817670473
  H        14.7293051633       12.0008283608        5.4430875702
  H        13.8650782507       11.2415756270        6.6802862134
  C        13.3336212371       10.4342200368        4.7404757276
  C        18.2662900087       14.8289144566        3.6344527187
  C        15.5190173987       12.8129481468       10.4762893319
  H        15.9949359796       14.6220660034        9.3746362932
  C        15.0221854348       11.0756916771       11.5320020532
  H        12.3130711006       10.7588969443        5.0383698528
  H        13.3645269906        9.3511314642        4.8066940531
  C        13.7669814497       10.8564993354        3.2982957803
  C        18.2831839131       16.2539320776        3.3647918156
  C        18.9201728857       14.0203664521        2.6448223227
  C        15.2053047007       13.4444406102       11.8161679276
  C        14.9208743236       12.0725389747       12.4950145222
  S        14.8066763971        9.5112878681       12.2658003010
  H        14.8366926669       10.4957334630        3.1349278599
  H        13.8161852886       11.9444164986        3.1864672857
  C        12.8943760608       10.2357232560        2.2178269521
  N        17.7242674594       17.2897905070        4.1625322766
  C        18.6947956396       16.7194993008        2.0996433796
  C        19.2341192834       14.4224648483        1.3226446390
  H        18.9454989927       12.9205277587        2.9109801328
  C        13.8780805658       14.1743740680       11.5704411113
  C        16.2697650869       14.3364079888       12.5212161901
  C        14.5726566149       11.6163250200       13.7255900254
  C        14.4128678862       10.3055099351       13.8178342251
  H        12.6485807955        9.1844149204        2.4863867084
  H        11.9579299724       10.6626739801        2.2688004198
  C        13.4902135471       10.2829118503        0.8974488310
  S        17.8743732567       18.7265319218        3.3557611600
  N        18.7094536778       18.1027671074        2.0233023705
  C        19.0753859430       15.8614855481        1.0138927376
  H        19.6424665433       13.7263242512        0.6317042965
  H        14.0733396305       14.9596576093       10.7819774836
  H        13.6342616218       14.7624019606       12.4555626043
  C        12.6323778099       13.3081379446       11.1528953984
  H        16.5112830766       15.1505160829       11.8458099799
  H        15.8580814331       14.6364565888       13.4830955808
  C        17.6111818137       13.5843013535       12.7937838083
  H        14.4253176681       12.3334320396       14.4883609308
  C        14.1178723729        9.5940273268       15.0915881524
  H        14.3153017188        9.5923857415        0.7876054258
  H        14.0177802577       11.2658055021        0.7419811923
  C        12.4908332315       10.0259693947       -0.2145228529
  C        19.3429911879       16.4792116430       -0.2719425832
  H        12.7798826884       12.6899139880       10.2286354925
  H        12.3275847020       12.7785161533       12.0237261699
  C        11.4105589882       14.1242348602       10.8446493076
  H        17.8808599690       13.0368634248       11.9240885075
  H        17.4959324925       12.8844435530       13.6397927381
  C        18.7494733525       14.6069822663       13.1579276847
  C        14.0230141158        8.1979168982       15.2852003920
  C        13.9304014751       10.4539597779       16.3035792022
  H        12.1367132357        9.0120893786       -0.2124702964
  H        11.5353148782       10.5543803891        0.0509318368
  C        13.0208888510       10.4782172349       -1.5942604252
  H        19.0532693156       17.5516060206       -0.3819789418
  C        19.6914686615       16.0121733439       -1.4866906657
  H        11.6989635919       14.9668547074       10.2754026955
  H        11.0537107480       14.5599971900       11.7613417191
  C        10.3487314141       13.4052724352        9.9851308747
  H        19.0834563703       15.2162519662       12.3266730685
  H        18.4941676722       15.2484205855       13.9203316151
  C        19.9471837772       13.8203021568       13.7237061699
  N        14.2340773314        7.3035273253       14.2410045536
  C        13.6739649032        7.6278502460       16.4723839195
  C        13.4245206676        9.8342255559       17.4909987988
  H        13.7942669585       11.5257013705       16.3078800340
  H        13.5911076505       11.4854167153       -1.4834450737
  H        12.2014543721       10.5243672526       -2.2955393419
  H        13.6782613069        9.6501434985       -2.1040949535
  S        20.0829235495       14.4099404636       -1.9147711320
  C        19.7057696381       16.9994156826       -2.5938072149
  H        10.7989406926       13.0307539703        9.0850279177
  H         9.8699850602       12.4393436007       10.3776287138
  C         9.0969601165       14.2036275966        9.6348952347
  H        20.0752191375       12.9565649915       13.0694262715
  H        19.7356395156       13.4072127258       14.7555734153
  C        21.2928133874       14.6091668068       13.8270050820
  S        14.1024022049        5.7954045630       14.8805958310
  N        13.6978067890        6.2313011127       16.4244972264
  C        13.4053219345        8.3390354281       17.6402854280
  H        13.2197231500       10.3151930360       18.4377304050
  C        20.2648271536       15.0255362176       -3.5021341694
  N        20.1175835002       16.3670176984       -3.6595051880
  O        19.2888839203       18.0979760128       -2.5269690704
  H         8.7294084106       14.6349489121       10.5626091866
  H         9.2429237119       15.0395162081        8.9266447928
  C         7.9730066201       13.2893860534        9.1308424921
  H        22.0434777148       13.8288199404       13.7305868837
  H        21.3868545797       15.3089635608       13.0090673500
  C        21.4288154594       15.3212252537       15.1330291545
  C        13.2261974725        7.6465556940       18.8805527677
  S        20.7070709885       14.0746985008       -4.8930600070
  C        20.1050526263       16.9604305849       -4.9163744723
  H         8.0552129660       12.9511568292        8.0803102248
  H         7.7779851230       12.4321558271        9.7912244616
  C         6.6890236870       14.1830863605        8.9697850873
  H        21.7027272036       14.5801485760       15.8350921752
  H        20.3706443458       15.6027926213       15.3725223136
  C        22.2945267417       16.5228008753       15.1729090405
  H        13.6311223307        6.7180938463       18.8291038971
  C        12.5708684946        7.9732469980       20.0566513945
  H        21.0329178133       16.8769811746       -5.4191434680
  H        20.0359196233       18.0155911397       -4.8876670876
  C        18.9158982074       16.5336258691       -5.7377568130
  H         6.1097589267       13.5754018593        8.2569874796
  H         6.8633325653       15.1950307193        8.5702466589
  C         5.9247616723       14.1991002922       10.3513825274
  H        22.3287691626       16.9325611742       16.1511288747
  H        23.2476914908       16.1611563443       14.7691260359
  C        21.7940274516       17.6804737829       14.3136018104
  S        12.0429114414        9.4941006199       20.4682093494
  C        12.4010347364        6.9463517881       21.0736639793
  H        19.1212225637       15.5949868571       -6.2883734736
  H        18.8522721519       17.1558847815       -6.5907152836
  H        17.9892145413       16.3489749997       -5.2156015505
  H         4.9148866627       14.3758305538       10.0037869258
  H         5.9558462141       13.3081352131       10.8653340217
  H         6.1997154017       14.9584653196       11.0694334118
  H        22.1219201329       18.6580040841       14.6436578328
  H        21.9549245056       17.6285155334       13.2472266533
  H        20.7405668796       17.6991375557       14.4439617961
  C        11.7370427120        8.8385251626       22.0577926097
  N        11.8711507901        7.4941432333       22.2038082158
  O        12.5556561153        5.7562859386       20.8809829376
  S        11.0119115916        9.7474102152       23.3745024005
  C        11.7009418626        6.6672534603       23.4396853070
  H        11.3449648175        5.7203414125       23.0701120870
  H        10.9268766477        7.1179457608       24.1195952508
  C        13.0316249988        6.6353025114       24.2337584283
  H        12.9732835599        6.3489187959       25.2358174763
  H        13.8176710233        7.4277097754       24.0998119855
  H        13.6043592689        5.7287261359       23.8582532124
