352
 i =    16700, time =    16700.000, E =        24.4052773456
  H        11.7492511086        6.5909946536       32.6835956325
  C        11.3131515276        5.5833945948       32.5862736730
  H        12.1152875933        4.9179024976       32.1998765763
  C        10.3121319220        5.7072938909       31.5082083963
  C        10.7051033679        4.9946991521       33.8404084857
  C        10.9395028395        5.7376818880       30.1214637781
  H         9.5232347629        4.9277362956       31.4898676783
  H         9.6600558788        6.4867213378       31.7651201003
  H        11.5301495330        4.7955101222       34.5650529987
  H        10.0461361853        5.7610623919       34.3142887060
  H        10.1684561540        4.0502154424       33.6297814353
  C         9.9724179464        5.5570825305       28.9953544367
  H        11.6463332899        4.8703680882       30.0235921791
  H        11.5584732111        6.5948230429       29.9916625076
  C        10.5641109624        5.5825477846       27.5590367867
  H         9.5669586936        4.5828706087       28.9918437998
  H         9.2595392506        6.3491546720       29.0174570729
  C         9.6307514867        4.9729557119       26.4550740129
  H        11.4026250168        4.9261883032       27.4977451584
  H        11.0765254760        6.4856124079       27.2728842937
  C         8.3721367722        5.8089796385       26.0960426602
  H        10.1996056725        4.8811230785       25.5472295381
  H         9.4625134558        3.9310618603       26.8040470906
  C         7.2294199149        5.0541459790       25.3284890111
  H         7.9260761824        6.1396428468       27.0618332142
  H         8.6238882233        6.7012796082       25.5649686386
  C         6.7594105315        3.6816846351       25.9448436514
  C         7.7696291504        4.3767005504       24.0987730590
  C         5.9919929246        5.9585206599       25.1005182312
  C         7.0611759895        2.6300305811       25.1013617840
  C         6.2245258467        3.2377434642       27.1869425109
  C         7.6648593313        3.0405978257       23.9331128690
  C         8.1785253440        5.0421078100       22.9580373549
  H         6.3026218514        6.8995630773       24.6196760534
  H         5.5143647588        6.2430309064       26.0629833435
  C         4.8743336693        5.3362346122       24.1829302581
  S         6.8402791574        1.1042494643       25.8554512269
  C         6.2690080977        1.8647304271       27.3603426300
  H         5.9317520493        3.9729506362       27.8649287571
  C         8.1819579624        2.4211173990       22.8269047437
  H         8.2259685384        6.0916325919       23.0480529776
  C         8.6330042260        4.4154085841       21.8033705343
  H         5.2574371510        5.3053042389       23.1398032584
  H         4.6453038257        4.3396263583       24.4802772760
  C         3.5391401650        6.2217777187       24.2472578925
  C         5.8787472890        1.0749139827       28.5761259133
  C         8.6178590036        3.1016114312       21.6646092357
  H         8.1723577891        1.3198142861       22.7472282409
  C         9.1197818235        4.8178559616       20.5541767640
  H         2.8909225074        5.8870893238       23.4451138676
  H         3.7501281180        7.2269731958       24.0972747327
  C         2.6851216157        6.1771508210       25.5832282035
  C         5.9353377949       -0.3546365912       28.7875133198
  C         5.4674046083        1.8338245631       29.7828177654
  C         9.0303808281        2.4162255894       20.4428835897
  C         9.2420155677        3.7467242780       19.7190572330
  S         9.4926183127        6.3722588301       19.8473749036
  H         1.7781335453        6.6138042991       25.3621042862
  H         3.1724680771        6.8102950554       26.2961136233
  C         2.5695169312        4.8493123395       26.2784881258
  N         6.2853882517       -1.2744362035       27.7615245715
  C         5.7066169400       -0.9323704956       30.0161022934
  C         5.0637018605        1.2334643185       30.9775086155
  H         5.4181082475        2.9372727684       29.7156253795
  C         7.9114582798        1.6726158974       19.7058655897
  C        10.4140940065        1.6383290846       20.5929889916
  C         9.5348884357        4.1539358208       18.3865490604
  C         9.7063645275        5.5771774977       18.3418036949
  H         2.0080374146        4.1888583834       25.5989442614
  H         3.5408278431        4.3263973838       26.6005623575
  C         1.6747918740        4.9744417253       27.5179917985
  S         6.1228862621       -2.8048051502       28.4417701497
  N         5.7747494279       -2.3327728465       29.9937366408
  C         5.3435656375       -0.2317129444       31.1936470705
  H         4.7960411741        1.9377628260       31.6890466577
  H         7.4262081800        0.8231851507       20.2793719529
  H         8.2268629785        1.0905252930       18.8618803677
  C         6.6845503743        2.5672306821       19.2596788393
  H        10.7952664869        1.3235615840       19.6110167698
  H        10.3655853362        0.7009502909       21.1625917632
  C        11.4883999269        2.4751751496       21.2771476863
  H         9.6081011515        3.4419577817       17.5866693195
  C         9.8682369839        6.3446470566       17.0658063616
  H         1.0037766611        4.1277244139       27.6745305405
  H         0.9995965159        5.7893596712       27.4477585224
  C         2.5548491349        5.1187927295       28.8177138596
  C         5.1420396709       -0.9951930782       32.3813817954
  H         6.9814786738        3.4321935543       18.6138944539
  H         6.3133348690        2.9226781816       20.1921110198
  C         5.6085468525        1.7921897481       18.5268234406
  H        11.2598671579        2.5142178988       22.3715562365
  H        11.5313932493        3.5037862631       20.9763995180
  C        12.9228239984        1.9108099792       21.0007478812
  C         9.9177460705        7.7395032924       16.9330907039
  C        10.1320034431        5.5888860238       15.7901959902
  H         3.1838148104        4.3113043937       29.0949448430
  H         3.2030905049        5.9357337215       28.5683595274
  C         1.7341982832        5.3702705406       30.0742741369
  H         5.1362093609       -2.0460168521       32.2256230392
  C         4.9217150850       -0.6875269231       33.6672986726
  H         5.2340740482        0.9202631296       19.0270623854
  H         6.0808849691        1.3472446770       17.6652841461
  C         4.5271793514        2.7115868158       17.9853425325
  H        13.0545106668        1.0815516860       21.7419184216
  H        13.0120146286        1.5197350293       19.9951819227
  C        14.0555279082        3.0104150068       21.1974679092
  N         9.7338824492        8.6472612394       17.9857420369
  C        10.2047052859        8.3617502676       15.7315211944
  C        10.4709754491        6.2600543464       14.6268544242
  H        10.2729451041        4.5177649533       15.7368240266
  H         1.2095104072        6.2229594710       29.7140445401
  H         1.1085371201        4.5358473874       30.3627176403
  H         2.4005660117        5.7044916203       30.8259430260
  S         4.7148203740        0.9766139902       34.1366568814
  C         4.9608513621       -1.7236545996       34.7905079816
  H         4.2574645713        3.5111669291       18.7522464470
  H         4.9557067940        3.2639714726       17.0839027064
  C         3.1968666399        2.1364564841       17.6391147223
  H        13.8289663999        3.9724107194       20.6919416383
  H        14.9855047708        2.6822239021       20.7100504131
  C        14.2636500473        3.1920850206       22.6934218944
  S         9.7505885183       10.1552746346       17.3646478194
  N        10.0512703732        9.7991635625       15.8530001267
  C        10.4272547858        7.7204755534       14.5524784154
  H        10.5340440812        5.7540255808       13.7143321255
  C         4.3746345336        0.2099709679       35.7649459530
  N         4.5692531212       -1.0846996672       35.9275278485
  O         5.1428079253       -2.9394388440       34.6442931230
  H         2.6848825754        2.8172761759       16.8787252334
  H         2.6050480298        2.2296240718       18.5516711427
  C         3.1661993507        0.6008170321       17.1984304926
  H        14.8320702702        4.0760986235       23.0058812424
  H        13.3040502385        3.2627270857       23.2197221582
  C        14.8471890296        1.8674843579       23.3431710384
  C        10.6711459711        8.4707928845       13.3359225434
  S         4.0107297132        1.1800842664       37.1151349424
  C         4.4634670238       -1.8405303765       37.1732047710
  H         2.6179363848        0.3467423631       16.2567117286
  H         4.1029199583        0.2528392487       16.9371547826
  C         2.6049874807       -0.3545655822       18.3012558077
  H        14.8648727249        1.0109870014       22.6149728057
  H        14.1343532909        1.4460902067       24.0599456330
  C        16.1803468920        2.0575352396       24.0503429015
  H        10.5713362514        9.5392604267       13.4137063202
  C        11.2992800024        8.1607459744       12.1766828563
  H         3.6652629627       -1.4369165349       37.7792447693
  H         4.2393122812       -2.9010385296       37.0073919912
  C         5.8173773986       -1.7877906616       38.0052971015
  H         1.5153553997       -0.2632990637       18.3560781080
  H         3.0454177467       -0.1917821537       19.2781006442
  C         2.8428771603       -1.8129941366       17.8527864221
  H        16.1883384640        2.9659457875       24.6081974777
  H        16.3926188598        1.2346036666       24.7320082738
  C        17.3332636771        2.1326570163       23.0741511002
  S        11.8123540071        6.5975948867       11.7129919070
  C        11.4660902571        9.2221294464       11.2016158629
  H         6.6649218403       -1.8698797524       37.4050267732
  H         5.9357871979       -0.7913967423       38.3937781181
  H         5.9159092171       -2.4142857223       38.9613140814
  H         2.4929233264       -2.4692282070       18.6552351594
  H         3.9510245490       -1.8220419496       17.7407107629
  H         2.3662525932       -2.0953561398       16.9419870205
  H        18.2749300042        1.7366593524       23.4259471453
  H        17.4706590060        3.1521892096       22.6628862524
  H        17.0103061186        1.5402135381       22.1449344505
  C        12.2631806879        7.3435554329       10.2017362221
  N        12.0372839920        8.7086224218       10.0803833612
  O        11.0392756067       10.3571967256       11.3320228494
  S        12.9507188407        6.4739833817        8.8473003124
  C        12.1946659146        9.4831136778        8.8486994330
  H        12.4503569084       10.5073790706        9.0483036365
  H        12.9505074014        9.1330684225        8.1985010402
  C        10.9080985895        9.4361305708        8.0358924564
  H        10.1431619976        9.9245910116        8.5260329211
  H        11.0692619418        9.9657260413        7.1285753424
  H        10.5367447240        8.4354248022        7.8114330317
  H        21.3940557573       11.4995485917        2.7681617382
  C        21.7250985609       10.4960676341        3.1030380961
  H        20.7010421917       10.1321620662        3.1474718930
  C        22.5198694055       10.3240073525        4.4567873405
  C        22.3328741110        9.8477713037        1.8483905126
  C        21.7950379527       10.7655545420        5.6612665560
  H        22.9593271005        9.3613375308        4.5453894539
  H        23.4105451084       11.0228537718        4.2866833379
  H        21.5391465937        9.5598562291        1.2086869904
  H        23.0550892961        9.1486474770        2.0664059544
  H        22.8710105060       10.6280278962        1.2810772680
  C        21.0841294906        9.6407093186        6.4585389157
  H        22.5738596556       11.1045476128        6.3309629232
  H        21.2138482575       11.6321940023        5.4048408410
  C        20.2703309437       10.0311207938        7.7290659473
  H        21.7733681907        8.8230905125        6.6996495242
  H        20.3766935223        9.2444091941        5.7463124075
  C        19.1148298584       10.8257574997        7.4441426874
  H        20.9806692809       10.6267083581        8.3280758289
  H        19.9627198043        9.1979470858        8.3420520664
  C        17.8606159533       10.0726473777        7.0981437793
  H        18.8812147978       11.4280414271        8.3387854843
  H        19.3151540551       11.5274657221        6.6443514781
  C        16.5181871128       10.8889377245        6.9564207307
  H        17.7419000029        9.2328694217        7.7762412513
  H        17.9693335821        9.7217956587        6.0848563645
  C        16.8658443525       12.2001345176        6.2575614255
  C        16.1947632422       11.6911842524        8.1969095495
  C        15.2624428516       10.1454429201        6.2220150394
  C        16.5948642476       13.3540867303        7.0158206188
  C        17.4173009471       12.5330992224        4.9815431018
  C        16.1428252346       13.0438244447        8.2512559337
  C        15.7767887488       11.1042657798        9.4030840195
  H        15.5569123777        9.6945580502        5.3262973477
  H        14.9524581103        9.3032059182        6.8779908328
  C        14.1220354358       11.1519487172        5.9278652299
  S        16.9567519420       14.7540244553        6.1139485068
  C        17.4799520322       13.8618527328        4.7191191584
  H        17.8147625539       11.6863025091        4.4142890562
  C        15.9334400744       13.7632784734        9.3915056943
  H        15.7793871856       10.0522701215        9.5176426897
  C        15.4939749357       11.7771092480       10.5414369258
  H        14.4977351489       11.9834202598        5.5064808905
  H        13.7383766391       11.2708113193        6.9003117902
  C        13.1559353207       10.5065273304        4.9856660284
  C        17.9571684210       14.5134955702        3.4579709849
  C        15.5296247560       13.1528911368       10.5731015043
  H        16.0797301409       14.8566818109        9.3709646336
  C        15.0311469015       11.4274410894       11.8369232642
  H        12.0789468739       10.7211512158        5.1687251046
  H        13.3378683886        9.4634855902        4.9063890859
  C        13.4487035000       11.1601748935        3.6201027053
  C        17.8880857414       15.9290833003        3.2700127085
  C        18.4631582415       13.6828627503        2.3478355287
  C        15.0852495443       13.8863400426       11.7755886706
  C        14.8744276998       12.5668800070       12.5884452257
  S        14.5756245168       10.0136336915       12.5706878407
  H        14.3781906396       11.6582439615        3.3981132900
  H        12.7729490696       12.0323604174        3.5014802497
  C        13.0755804826       10.1089019736        2.5914955893
  N        17.4762784635       16.8555624698        4.1936518079
  C        18.2547838187       16.4780518730        2.1047557113
  C        18.7725228641       14.2442102590        1.1004718898
  H        18.4860881517       12.6112761044        2.3739408137
  C        13.7422044829       14.6170301591       11.5291057363
  C        16.1761874085       14.7629942502       12.4314851726
  C        14.4211979999       12.2309356563       13.8865288482
  C        14.2537925391       10.8586046038       14.1039845053
  H        13.6291712926        9.2282030253        2.7999323084
  H        12.1653826726        9.5861560183        2.7603184534
  C        13.2610874217       10.5015889183        1.1239224595
  S        17.6145667478       18.3362774033        3.5444718235
  N        18.1865950512       17.8889333949        2.0756734381
  C        18.6400505258       15.7596118637        0.9395861491
  H        19.1521406026       13.5506278658        0.4287237619
  H        13.9306437203       15.4385745632       10.8272197484
  H        13.4682746333       15.1403618718       12.4358968552
  C        12.5395509837       13.8334996624       11.0924366762
  H        16.6437418837       15.4005623214       11.6922155883
  H        15.8118497080       15.3540129191       13.2609089570
  C        17.4021459603       14.0043326417       12.9920655992
  H        14.1342225617       13.0239056241       14.4547583662
  C        13.7726390531       10.1132328535       15.3007235053
  H        14.2890013207       10.1564135794        0.8060396453
  H        13.3508392553       11.5749319488        1.0133725983
  C        12.0484070881       10.0871633909        0.1769091261
  C        18.9470659986       16.4855565093       -0.2957693543
  H        12.6902641314       13.2836187228       10.2073896783
  H        12.2670915492       13.1353463197       11.8821949236
  C        11.2417083860       14.6679832114       11.1160542890
  H        17.9868707844       13.6111212050       12.1660316814
  H        17.2418366075       13.0938659168       13.5924414026
  C        18.3479387215       14.8886812511       13.7561250919
  C        13.6704909809        8.7320024223       15.3572267021
  C        13.5073078733       10.8705827358       16.5971072211
  H        11.7378834289        9.0713538113        0.4605215457
  H        11.2272211450       10.7832184806        0.4052186145
  C        12.4180982283       10.0984864338       -1.2644156650
  H        18.5716023681       17.5006840804       -0.3143678065
  C        19.2579594811       16.0304457247       -1.5497142560
  H        11.2003198400       15.4946853627       10.3751760635
  H        10.9737715708       15.1283121549       12.0791581800
  C        10.0280758220       13.7896944973       10.7639463293
  H        18.7950737645       15.4751996197       13.0485423242
  H        17.7878994771       15.5016475811       14.4872234883
  C        19.4684368318       14.0136323115       14.3113444219
  N        14.1013912367        7.8096405314       14.3472795723
  C        13.3930533963        8.1372149952       16.5826101166
  C        13.0373406321       10.2430337489       17.7135267381
  H        13.5424134554       11.9448734164       16.5504240249
  H        11.5799601561        9.6290228620       -1.7742676418
  H        13.3631028657        9.5028525794       -1.4451712840
  H        12.4631057306       11.0900961484       -1.7018590507
  S        19.5761816917       14.4039307610       -1.9387017098
  C        19.4770522753       17.0050751924       -2.5890156403
  H        10.0676338741       12.7881378914       11.2032988609
  H         9.1590803311       14.1521480810       11.3365029193
  C         9.7843193547       13.7678594576        9.2316986126
  H        19.9184624997       13.4123223789       13.5302319905
  H        19.0374701331       13.2813828000       15.0192069338
  C        20.6352509825       14.8464370677       14.8410987713
  S        13.8247877289        6.3256314170       14.9563700338
  N        13.4691317070        6.7503942830       16.4972228478
  C        13.1213538745        8.7928080340       17.8033390831
  H        12.9245054507       10.8405290523       18.5702880631
  C        19.8228504484       15.0713352095       -3.6190224202
  N        19.8435567503       16.3811366569       -3.7194966056
  O        19.2333861992       18.2158263168       -2.4190359443
  H         9.8289094100       14.8407103222        8.9618791234
  H        10.5711541043       13.2481339068        8.6528463291
  C         8.3085791991       13.3569881821        8.9430560197
  H        20.1050693149       15.7483055837       15.1718595623
  H        21.2126584727       14.4334087347       15.7242605043
  C        21.7087629292       15.3451911585       13.8087953923
  C        12.9510632656        7.9449469204       18.9743078423
  S        20.0054683623       14.1214891842       -5.0911822660
  C        19.6698459187       17.1568503898       -4.9505911029
  H         8.3181602826       13.1809783904        7.8663423721
  H         8.1059871475       12.3970512035        9.4418994537
  C         7.2605637766       14.3618450260        9.2836660801
  H        21.2835605961       15.5028523914       12.8318687707
  H        22.4288294682       14.5916145863       13.7186416429
  C        22.1573458133       16.7864147231       14.2643395985
  H        13.1263885899        6.8675355290       18.8350261355
  C        12.4008195340        8.2778019645       20.1655835077
  H        20.3223270825       16.7707984641       -5.7580844364
  H        20.1144147276       18.1271244909       -4.7906849657
  C        18.1908464107       17.1482022762       -5.4305131891
  H         6.7953510582       14.5868059237        8.3058003260
  H         7.6298840811       15.3218488813        9.6925152524
  C         6.1361900682       13.8376102045       10.1447005165
  H        22.0107892611       16.9111418056       15.3388759801
  H        23.2791342723       16.7209797762       14.1521517952
  C        21.5126287759       17.9680008094       13.5667289993
  S        11.5739752543        9.7416050933       20.6360183548
  C        12.3802476147        7.2582166319       21.2888399686
  H        18.0798019539       16.5121440405       -6.2944646404
  H        17.8216062867       18.1331467359       -5.6702525088
  H        17.4891035497       16.9068386311       -4.6415499246
  H         5.5336953523       13.1495326458        9.6133605835
  H         6.5572981406       13.3800912987       11.0172053651
  H         5.5000994541       14.6859050466       10.5814453346
  H        21.8679899567       18.9418400463       13.9813118032
  H        21.6730869021       17.9467599800       12.4878601693
  H        20.4057791174       17.9889533036       13.7506082638
  C        11.1872324544        8.9310262409       22.2118205999
  N        11.5960129010        7.6476729424       22.2947724899
  O        12.9833857241        6.1555534106       21.1603557278
  S        10.5353165848        9.6213519432       23.6532440329
  C        11.4440436094        6.8020454630       23.5078953334
  H        11.2554820587        5.7118945018       23.3748714611
  H        10.5708360508        7.1026931242       24.0353846302
  C        12.5878986206        7.0360691940       24.4616320832
  H        13.4928865327        6.5066568437       24.0178004304
  H        12.3214178740        6.6958351011       25.4761863991
  H        12.8768834641        8.1032426436       24.4415931362
