352
 i =    84900, time =    84900.000, E =        24.8847941117
  H        10.2330407846        6.2239214192       32.0214522958
  C        11.2508433331        6.1512655626       32.2594545511
  H        11.5207392196        7.1724115805       32.6725811032
  C        12.0450897457        5.8388423125       31.0277927625
  C        11.4770246196        5.2458291851       33.4596277422
  C        11.3825942262        4.9824960748       30.0011457029
  H        12.4294302472        6.7917711750       30.7397752558
  H        12.9776964571        5.3015836176       31.3077565304
  H        11.2972169183        5.7720457188       34.3971996617
  H        10.7078505628        4.4330283963       33.4768321631
  H        12.4332477107        4.7455920514       33.4292469121
  C        10.3951857147        5.7386652148       29.0666084464
  H        11.0353496558        4.1973393625       30.6706742837
  H        12.1244663066        4.4609994383       29.3425305326
  C        10.9290710339        6.0869386153       27.6800672723
  H         9.5555176569        5.0788867922       29.0428225025
  H        10.0996739401        6.6979388201       29.5145987872
  C        10.0988982425        5.3333864572       26.6996551968
  H        11.9011168362        5.7400664502       27.6133956525
  H        10.9129244201        7.1401029633       27.5295389832
  C         8.7981199885        6.0713898993       26.3179672831
  H        10.7096490685        5.0868806284       25.8336753978
  H         9.6569093338        4.3834268777       27.1654401316
  C         7.7432395072        5.2377368104       25.4811588941
  H         8.3922046960        6.5444987368       27.1977982428
  H         9.0723939251        6.8083913052       25.6277084732
  C         7.3524217871        3.9593416449       26.1738695515
  C         8.2321518918        4.4721010390       24.2954493123
  C         6.5859480303        6.0680280484       25.0796181437
  C         7.6141265353        2.8344678682       25.4260845324
  C         6.8495202253        3.5934285435       27.4284768623
  C         8.0894674966        3.1360900581       24.1518073045
  C         8.8372367179        5.0826870869       23.2255329817
  H         6.1471746262        5.4252843464       24.3260775186
  H         6.8040834969        6.9567827679       24.4987057946
  C         5.6063428760        6.4477097623       26.1909269467
  S         7.2457547717        1.3432760025       26.1973108510
  C         6.6487846705        2.2654620609       27.5922132726
  H         6.8452231960        4.3159137600       28.2732680572
  C         8.4743934028        2.4525566461       23.0391406095
  H         8.9818570572        6.1408913405       23.2404286303
  C         9.2386569613        4.4792341622       22.0596209550
  H         5.6858538637        5.8683294193       27.0764715761
  H         5.8420048530        7.3618357400       26.6184904401
  C         4.1541751087        6.3215463423       25.7674062672
  C         6.1606652527        1.6587650064       28.7991440434
  C         9.0781279054        3.0906124969       21.9423775363
  H         8.3258924225        1.3718507734       23.1258975781
  C         9.6534665734        4.8213105068       20.8004371434
  H         3.9765225060        5.2774722614       25.4674584603
  H         4.1049971107        6.8512246021       24.9220320631
  C         3.2186088508        6.8120934014       26.9368337619
  C         6.2925279852        0.2350078020       29.0175680717
  C         5.6380768514        2.4312217791       29.9089102188
  C         9.3238510649        2.3572818543       20.6409465500
  C         9.6512359837        3.7117533893       19.9647023012
  S        10.0048989851        6.3130203121       20.1121143779
  H         2.3795126353        7.4572886153       26.6231906551
  H         3.8127339184        7.3934266810       27.6797976841
  C         2.7447779176        5.5412079635       27.6620308329
  N         6.7597643639       -0.7086014487       28.1137640635
  C         5.9640658800       -0.3365228947       30.2473038725
  C         5.3016211464        1.8561747874       31.1733669083
  H         5.3787539752        3.4740555471       29.7787171738
  C         8.0802104345        1.6559973284       20.0273324608
  C        10.6678272919        1.4985674441       20.6761403410
  C         9.9663238049        4.1175786370       18.7129163284
  C        10.0864989513        5.4731864741       18.6333168073
  H         2.1609589074        4.9636238694       27.0501344873
  H         3.6228641317        5.0293002495       27.9589412939
  C         1.9320047134        5.8900537368       28.9087541928
  S         6.8555132587       -2.1748651949       28.7737192671
  N         6.1550801807       -1.7467383463       30.2227340052
  C         5.4015402584        0.3869059539       31.3402956988
  H         4.8919172212        2.4330149749       31.9711753284
  H         7.7814884509        0.7948075952       20.6345538535
  H         8.4309840514        1.1682830841       19.0780131003
  C         6.9534683249        2.6062887685       19.7442399230
  H        11.0214685296        1.2262201332       19.7010331061
  H        10.5803487820        0.5327200085       21.2777678761
  C        11.8999319430        2.1865696623       21.2953182962
  H         9.9440773603        3.3654085659       17.9064173866
  C        10.4859803372        6.2240604917       17.3704539999
  H         1.4053625427        4.8804273943       29.0865013510
  H         1.0898121677        6.5641027707       28.7316516734
  C         2.7294904249        6.4116374021       30.0647689054
  C         5.0924720890       -0.3844072198       32.5003866332
  H         7.2137373766        3.2605615623       18.8993787144
  H         6.6835925820        3.2190727854       20.6367300745
  C         5.7213108638        1.9534667280       19.2851561038
  H        11.8443398519        2.5739755305       22.3177721805
  H        12.1208938175        3.1270253391       20.7346298309
  C        13.2288162826        1.4057957251       21.0477389778
  C        10.7032350657        7.6447651922       17.1756778469
  C        10.7568754100        5.3654079257       16.1074027149
  H         3.6638083081        7.0140050606       29.8205945060
  H         2.1673482362        7.2900905151       30.4979759012
  C         3.0390417996        5.3195216608       31.0641120812
  H         5.1157868354       -1.4537527090       32.4112011135
  C         4.8223398283       -0.0101911085       33.8205748572
  H         4.9677055456        2.6411440815       19.5183973736
  H         5.5735857862        1.1661583611       20.0057028993
  C         5.6543211489        1.3475637199       17.8075495117
  H        13.3846554510        0.6395427761       21.8413161214
  H        13.0250334162        0.9333169638       20.0743767151
  C        14.3803812442        2.3548577282       21.0307291609
  N        10.4899706504        8.6462716822       18.1727440566
  C        10.9150622864        8.1816623769       15.9802703680
  C        10.9786637971        5.9661291032       14.8708599062
  H        10.5868412396        4.2756021444       16.2138406584
  H         3.3839266235        5.8077206171       31.9227679155
  H         2.1259974727        4.7939504160       31.4464494145
  H         3.5597455203        4.4673263825       30.6559375728
  S         4.5532000635        1.6151428055       34.4619221437
  C         4.7971648647       -1.0720559055       34.8188739068
  H         5.7947846136        2.1873199504       17.0550676602
  H         6.3814701562        0.5655599063       17.7096265111
  C         4.2517918634        0.7960461946       17.5373228410
  H        14.1285160981        3.0152222274       21.8048438799
  H        14.4711642110        2.9905623291       20.1397656072
  C        15.7682433913        1.8214254548       21.3614937373
  S        10.6560600195       10.1117826966       17.4993267100
  N        10.9869972152        9.5698493947       15.9915382285
  C        11.1528635200        7.4699485164       14.7756945764
  H        11.0670188571        5.3509956219       13.9471186529
  C         4.5722157437        0.8813838951       36.0485350447
  N         4.6393441979       -0.4930400541       36.0624355725
  O         4.7857622230       -2.2833759153       34.5308731886
  H         4.3510922456        0.5861170158       16.4577818537
  H         3.4704753546        1.5513248173       17.7608312164
  C         3.8474726012       -0.4720178188       18.3334481789
  H        15.7790139131        0.7128382333       21.3263217696
  H        16.4269289815        2.1434476525       20.5598759019
  C        16.3090301964        2.2490063424       22.7370005093
  C        11.2735402504        8.1736974194       13.5292268178
  S         4.2874777919        1.7342453273       37.5191194863
  C         4.8964836458       -1.2994689114       37.2629775273
  H         4.5780968657       -1.2751085575       18.2547391103
  H         3.8760604035       -0.1635682392       19.3887019385
  C         2.4475025304       -1.0127485509       18.0257289244
  H        15.6106196888        1.9586819377       23.4853611945
  H        16.2256667411        3.3068684788       22.8758420541
  C        17.6694643691        1.8424533040       23.0461644518
  H        10.8150298307        9.1097780853       13.4162862828
  C        11.9539927722        7.9203387747       12.3254959603
  H         4.4556618295       -0.9467641794       38.2050452420
  H         4.2543457448       -2.2270734376       37.2207799535
  C         6.3997359696       -1.5401841546       37.4143818579
  H         1.7796718404       -0.1635840587       17.8498128878
  H         2.0747150112       -1.7229711335       18.8185854342
  C         2.4387696020       -1.8497865916       16.7541530296
  H        17.9888769683        2.1604173521       24.0648676375
  H        17.6800488759        0.7734063965       23.1189233388
  C        18.5740547324        2.4664727738       22.0361256252
  S        12.6394798494        6.4187720593       11.8728414479
  C        12.0049669449        9.0480121873       11.3660999560
  H         6.6435707073       -2.4815475618       37.9751675204
  H         6.9006813047       -1.6825575466       36.4960990832
  H         6.8952318822       -0.6955703945       37.9636447516
  H         3.2492704348       -1.5253171249       16.1063525025
  H         1.4893289985       -1.6165287688       16.2402586646
  H         2.4963247175       -2.9153777882       17.0328487555
  H        18.5022694261        1.9414248255       21.0825212761
  H        19.5913339838        2.3490785016       22.3978754230
  H        18.4376998056        3.5314876853       21.7637864726
  C        13.0218508442        7.2633928372       10.4362605071
  N        12.7392686264        8.5795114224       10.3820991977
  O        11.5421934795       10.1937920185       11.5070097419
  S        14.1652637351        6.6066420274        9.1930683631
  C        12.9355373464        9.3770987135        9.1580943048
  H        12.9250716592       10.4545491383        9.3029440955
  H        13.8907848671        9.0631083800        8.7062704391
  C        11.7352953859        9.0561365705        8.2642740073
  H        10.8571543537        8.8438069174        8.9203882649
  H        11.3872147941        9.8904366198        7.5954894155
  H        11.9644680662        8.1478392298        7.6114787074
  H        20.9357345692       11.1895664038        3.8784624673
  C        21.5543473733       10.2612887108        3.7827138547
  H        20.9650703844        9.4221525258        4.1498033787
  C        22.8452573309       10.3147602300        4.6293036633
  C        21.8163220469       10.0596676403        2.3117114900
  C        22.5182735091       10.3005849033        6.2037185964
  H        23.5416336173        9.4718533629        4.4168672315
  H        23.2679284692       11.2552140938        4.3617649308
  H        21.5897339947        9.0890202198        1.8606512709
  H        22.8292828205       10.3880691244        2.1552744462
  H        21.2412545067       10.7609018604        1.7489771852
  C        21.9475874355        8.9393989794        6.6828453562
  H        23.3470239068       10.5694676942        6.8647895916
  H        21.7569143714       11.1102641839        6.4324144672
  C        20.7271895709        9.1596082993        7.5992710196
  H        22.7706902091        8.5684535662        7.2747217446
  H        21.8354660475        8.2228727995        5.8622242965
  C        19.4737542281        9.4946696515        6.8212244139
  H        21.0362410884        9.9643480966        8.2474967555
  H        20.5502110592        8.2209785136        8.1447460768
  C        18.3326646093        9.7822727357        7.8478765613
  H        19.5830221750       10.3357254157        6.1496353321
  H        19.0798024756        8.6291445438        6.3271389454
  C        17.0957659156       10.5407331222        7.2843467258
  H        18.7480139234       10.4043754123        8.6099102969
  H        17.9767192856        8.8852776086        8.4080853498
  C        17.3470200373       11.8544953348        6.4556719895
  C        16.5898841122       11.3652688480        8.4598420107
  C        15.9247058838        9.5869422888        6.6893028910
  C        17.1058933742       13.0025422350        7.2207711574
  C        17.8097866937       12.1367064366        5.1754232834
  C        16.6152824290       12.7231271496        8.4873670883
  C        16.0763341659       10.7512479161        9.5901980493
  H        16.3480551248        8.9169573814        5.9644194701
  H        15.7167354803        8.8332747687        7.4856366398
  C        14.6642398943       10.4133857227        6.1576247597
  S        17.4249765430       14.4415657575        6.3133457665
  C        17.9248504173       13.4565860063        4.9957587225
  H        17.9662464149       11.3509850292        4.4637527071
  C        16.2866506808       13.3672646003        9.6302822568
  H        16.1358203480        9.6860125775        9.6266065931
  C        15.8128226302       11.4190559246       10.7219817268
  H        15.1019423826       11.3105010295        5.6322195608
  H        14.1486176825       10.8151185641        6.9477767144
  C        13.7942177704        9.7459871630        5.0695631214
  C        18.3561534051       14.0845121673        3.6913428421
  C        15.9821264642       12.7697287913       10.7961408937
  H        16.3784050546       14.4330372654        9.6229860162
  C        15.4314259690       11.0729151032       11.9681364567
  H        12.7528351156        9.8273855092        5.2520696091
  H        14.0103462730        8.6817066540        5.1333561701
  C        14.0558038562       10.4170473939        3.7007545049
  C        18.3347680098       15.5256817945        3.4276914510
  C        18.9131646875       13.3003041957        2.5889188498
  C        15.6704579419       13.4541764585       12.0896455267
  C        15.3918026868       12.1300280777       12.7999832101
  S        15.1201124207        9.5382637942       12.6920764740
  H        15.1117767957       10.5662613979        3.5510033726
  H        13.5565851082       11.3724810927        3.7114122170
  C        13.7507599770        9.5082690853        2.5016624551
  N        17.8521583637       16.4612462141        4.2916023844
  C        18.6003405934       15.9656200097        2.1395266783
  C        19.1548674008       13.7475724889        1.3292517973
  H        19.0403916644       12.1962398208        2.8098106583
  C        14.3969048161       14.2847810822       11.9446415209
  C        16.8571666343       14.2660664581       12.6222377786
  C        14.9322039670       11.7287446572       14.0802869026
  C        14.7766073737       10.3544877265       14.2317802547
  H        14.6694717314        8.8691099764        2.5869812196
  H        12.9251978059        8.8690061749        2.5504873546
  C        13.8166332744       10.1363580648        1.1649707021
  S        18.0700718158       17.9311957313        3.5861732115
  N        18.4178028075       17.4072889121        2.0538148598
  C        18.8868080006       15.1502798889        1.0270903804
  H        19.4543890518       13.1009499002        0.6022186482
  H        14.5022414608       15.1568907898       11.3507579942
  H        14.0554165927       14.5477166578       12.9798904623
  C        13.2420008586       13.3853217134       11.3698917772
  H        17.4265609448       14.6001096078       11.8118428806
  H        16.5713375899       15.1795184001       13.1050708828
  C        17.7733299039       13.5092342804       13.6246726674
  H        14.8707524441       12.4220657834       14.8847925050
  C        14.5408853210        9.6853531607       15.5440002588
  H        14.8028444068       10.0564611486        0.7929546723
  H        13.5306754825       11.1588581746        1.3870814890
  C        12.7516025067        9.5921293573        0.1591020715
  C        19.0551408368       15.8448481801       -0.2313433137
  H        13.5115336598       13.1310710628       10.3605706944
  H        13.0440648623       12.5237067640       11.8675212694
  C        12.0278267961       14.1639253341       11.1513222133
  H        18.0981794482       12.6516441585       13.1138730483
  H        17.0889613632       13.3015376520       14.4091531280
  C        18.9051807319       14.3329166539       14.1699437704
  C        14.4491363728        8.3001585329       15.6447941417
  C        14.2835417526       10.4774921962       16.7834201433
  H        12.8966881840        8.5323991802       -0.0439480022
  H        11.7239080842        9.6413913722        0.5802705878
  C        12.7213769675       10.3371773230       -1.1470477923
  H        19.1344787045       16.8711266766       -0.2955382026
  C        19.3613735946       15.3135437609       -1.4909149232
  H        12.4002990026       14.6944364682       10.2402727837
  H        11.9267751986       14.8150187302       11.9935266864
  C        10.8274652585       13.3359906804       11.0014283898
  H        18.5513762314       15.3691126890       14.2391356800
  H        19.2233571831       14.0118875513       15.1525016582
  C        20.0724255632       14.1618966070       13.0920681851
  N        14.8793062645        7.4300204651       14.6258941008
  C        14.1265668298        7.6628084326       16.8374213479
  C        14.0642615211        9.8582784481       18.0119933073
  H        14.6044218492       11.5436703977       16.8003141209
  H        12.3812825520        9.7658531192       -2.0104610003
  H        13.6594714444       10.7067367175       -1.3944754486
  H        11.9951929162       11.1214586392       -1.1866588707
  S        19.5963127232       13.6861416364       -2.0045929717
  C        19.4095359764       16.2523425640       -2.6144070776
  H        11.0286534925       12.4153383638       10.4490059368
  H        10.5299154801       13.0507556919       12.0365771989
  C         9.7042008406       14.1333773152       10.2587613480
  H        19.6917581300       14.3373605575       12.1141597362
  H        20.4791212739       13.1397967570       12.9926418569
  C        21.3452122358       14.9891965383       13.2481684688
  S        14.6202418555        5.8728855095       15.0831338859
  N        14.0981559552        6.2005495819       16.6103109933
  C        13.8890479650        8.3716876685       18.0262410612
  H        14.0897307642       10.4292843162       18.9786156701
  C        19.9825360681       14.3139330161       -3.5839004882
  N        19.8151207149       15.6071101899       -3.7089153046
  O        19.3182538568       17.5006199203       -2.5306261922
  H         9.3943459474       14.8925329705       10.9868899078
  H        10.0493431157       14.6371240729        9.3957912914
  C         8.6461601147       13.2147171536        9.6502977740
  H        22.2180087021       14.3309377579       13.3018707248
  H        21.5834571950       15.5402235751       12.3320569849
  C        21.3385175762       15.9042177437       14.4661307880
  C        13.6462905151        7.6153742544       19.1986102015
  S        20.1326465080       13.4175553709       -5.0785651488
  C        20.0029602722       16.3939869006       -4.9168896450
  H         9.0938891063       12.6099171316        8.9040021537
  H         8.2724467610       12.5982457907       10.4824006339
  C         7.3514870949       13.9321261838        9.0342080958
  H        21.2337239920       15.4193309877       15.4279371163
  H        20.4501656994       16.5463575018       14.4787213439
  C        22.6315394102       16.7252328763       14.3791515028
  H        13.8160489211        6.6026519162       19.0699551498
  C        13.0661282488        7.9205784353       20.4264136229
  H        20.7071129678       15.9940259612       -5.5642461666
  H        20.4547470570       17.3161963567       -4.4797794793
  C        18.7140263597       16.7664510695       -5.6342129209
  H         6.9179682338       13.5436291930        8.1331626507
  H         7.5615806750       15.0172410018        8.8672134930
  C         6.3508177705       13.9975796070       10.1024827888
  H        23.4316021623       16.1024805150       14.1145149953
  H        22.5757299085       17.5312443346       13.6571247856
  C        22.9539271645       17.3610870261       15.7422718597
  S        12.5371988291        9.4407961470       20.8527285892
  C        12.8703136790        6.8332482967       21.4559310275
  H        17.9612535660       17.2058738984       -4.9527605782
  H        18.1753567388       15.8879511629       -5.9283739876
  H        18.9295278093       17.3790606211       -6.5151721490
  H         5.4281195209       14.4057539112        9.8420967284
  H         6.1224912573       12.9512549636       10.3913606121
  H         6.6253820583       14.5357293594       10.9615851753
  H        23.4791196866       18.2881441367       15.5369762089
  H        22.0253869746       17.5988865151       16.3329977016
  H        23.4816740388       16.6700313749       16.3830692337
  C        12.1528979674        8.7919516167       22.4231467283
  N        12.2415376428        7.4077863200       22.4887197357
  O        12.8750344506        5.6502800505       21.2138336821
  S        11.2882511400        9.5959973496       23.6531827928
  C        12.0635837642        6.6861754570       23.8071867629
  H        11.9400528589        5.5759867489       23.5778689196
  H        11.1747986704        7.0128480752       24.3452291713
  C        13.2531662486        6.9923874265       24.6542708287
  H        13.2761743671        6.9321862828       25.7628807633
  H        13.9136352560        7.8866633754       24.3491411158
  H        13.9878811678        6.2571534861       24.3483763102
