352
 i =    22300, time =    22300.000, E =        24.2974181303
  H        12.6772307679        7.0347050555       32.0625117581
  C        12.0620403638        6.1924932830       31.8088358742
  H        12.7648095243        5.3829817969       31.6211593410
  C        11.3002756568        6.5408203094       30.4869101260
  C        11.0964257971        5.8225757917       32.8840105298
  C        10.6457808420        5.3407148663       29.8019938432
  H        10.5858046856        7.3619550850       30.7789704735
  H        11.9711721689        7.0781192107       29.7874755483
  H        11.5920972537        5.8591367595       33.8790991623
  H        10.2586045688        6.5373007284       33.0108491656
  H        10.6962041449        4.8003743390       32.7178467302
  C         9.5239921388        5.8023525325       28.8837911569
  H        10.3121699568        4.6020815936       30.5581033122
  H        11.4579419367        4.8104013121       29.3285396233
  C        10.0078113112        5.7388759431       27.4690816812
  H         8.6092961824        5.2200647143       29.1790063230
  H         9.2306933792        6.8309153220       29.1747121232
  C         9.1026512179        5.0537154246       26.4721950325
  H        10.9021784339        5.1585813113       27.4580893234
  H        10.2246047241        6.7117410092       27.0495698191
  C         7.9779970747        5.9830262231       26.0771201381
  H         9.7786853632        4.8780718329       25.6622321213
  H         8.8469902400        4.2385374558       27.0596584130
  C         6.9085614603        5.2063947005       25.3731566557
  H         7.4727262397        6.5166284202       26.9717563927
  H         8.3296730935        6.6996097951       25.3652471436
  C         6.5960604675        3.8924889423       26.0980352580
  C         7.4217744101        4.4901065070       24.2551127496
  C         5.5839256026        6.0037782842       25.0889153791
  C         6.9411041713        2.7543984376       25.3739329585
  C         6.0244615941        3.5223423424       27.3274578876
  C         7.4659971076        3.1164997486       24.1237334428
  C         7.8709662531        5.1800690284       23.0938583535
  H         5.6787870587        6.7704478056       24.3679047661
  H         5.3619823934        6.5504725749       26.0342641637
  C         4.4097292509        5.2533554167       24.5332005090
  S         6.6124983068        1.2847649485       26.1376562907
  C         6.1397811053        2.1836447743       27.5122293445
  H         5.6560622106        4.3059343157       27.9788901107
  C         7.9515166458        2.4965459638       23.0377410658
  H         7.8506952419        6.2069054499       23.1081803013
  C         8.2830198161        4.5641973769       21.9473733745
  H         4.5040320227        5.1075468666       23.4960521722
  H         4.2043319646        4.2868251303       24.9757214870
  C         3.1144343316        6.0918398318       24.7460721119
  C         5.7838665490        1.4193534260       28.7800463250
  C         8.3702803867        3.2051399447       21.9134530966
  H         7.8703441003        1.3915690737       23.0451907114
  C         8.6084141170        4.9474252262       20.6640415539
  H         2.4082932089        5.5464311721       24.0358610092
  H         3.3729635624        7.1382498099       24.4963324106
  C         2.5187156074        6.0817555596       26.1566116996
  C         5.8616108719        0.0393593091       29.0409927726
  C         5.1260356103        2.2191350574       29.8596456365
  C         8.6304580452        2.5067567977       20.5572431870
  C         8.8035447993        3.8490095123       19.8703000843
  S         9.0243776547        6.4537398844       19.8912047210
  H         1.5918497218        6.6247283943       26.1222142881
  H         3.3051321358        6.5614938954       26.7652744758
  C         2.1496176724        4.7213890544       26.7421596317
  N         6.3106047820       -0.9356120415       28.1057360933
  C         5.4760383383       -0.4751340203       30.2677822649
  C         4.8189959133        1.6673108093       31.0789008004
  H         4.8998878499        3.2274766774       29.7602421788
  C         7.4339176605        1.6696652476       20.0483858318
  C         9.9901498611        1.7026538666       20.5227351211
  C         9.1564985784        4.2460965660       18.5819964816
  C         9.3283170234        5.5974550102       18.3849687611
  H         1.5537793732        4.1250004435       26.0250873590
  H         3.1042092292        4.1697610860       26.8813389576
  C         1.2868931520        4.7773722870       28.0117818137
  S         6.1177509748       -2.4022668675       28.8109636242
  N         5.6715602492       -1.8715871584       30.2470738731
  C         4.9361196428        0.2101543216       31.3533784129
  H         4.3695496424        2.2561635398       31.7857261757
  H         7.2299074913        0.8427708956       20.7457416697
  H         7.8352622018        1.1563998725       19.1537412267
  C         6.1682601397        2.4622912939       19.7603824670
  H        10.1697583908        1.1561411755       19.5658875592
  H        10.1373822285        0.9347857528       21.2984657229
  C        11.2443093016        2.5311462239       20.8687002017
  H         9.2078036856        3.5178269082       17.7739611283
  C         9.7423659616        6.2678591390       17.1105776071
  H         0.9816249390        3.7509367129       28.2119503674
  H         0.3588971124        5.3373452318       27.7853976804
  C         2.0367075363        5.2968991557       29.1504444529
  C         4.6431413990       -0.4584769609       32.5473943359
  H         6.4068146665        3.1821148853       18.9840603123
  H         5.8391120861        3.0855325363       20.6226339214
  C         5.0494600233        1.5216439816       19.2393596358
  H        11.0596652942        2.9934037229       21.8343360582
  H        11.3531162865        3.3048810438       20.0803858090
  C        12.5353822915        1.6997322700       20.8174112508
  C         9.8269164184        7.6157009563       16.8427286611
  C        10.0710515088        5.3937180531       15.9514230359
  H         2.9164643187        4.7655734203       29.3526487359
  H         2.5179451853        6.2630827345       29.0696204017
  C         1.3108910283        5.2386537353       30.4684763290
  H         4.6260032298       -1.5499377792       32.4319379294
  C         4.4090285740       -0.0580787303       33.7972227047
  H         4.5609540432        1.0669324360       20.1091309837
  H         5.5796317041        0.6518148332       18.7706164667
  C         3.9361284333        2.1725586395       18.4087071029
  H        12.3771271273        0.8077736538       21.4389169846
  H        12.4590776525        1.2670875170       19.8657476794
  C        13.9190014944        2.4304896015       21.0458416206
  N         9.5240734859        8.6343710848       17.7747582442
  C        10.1391966443        8.1502250692       15.6253897338
  C        10.3795494326        5.8998095292       14.7202160753
  H         9.9994522233        4.3322648107       15.9717304308
  H         0.5216654267        6.0354458071       30.5440389025
  H         0.7433836933        4.3784283102       30.5784714580
  H         1.9365513280        5.2086699843       31.3959114074
  S         4.1579357617        1.5949855614       34.3039023270
  C         4.2785370867       -1.0016749985       34.8870065014
  H         3.7559970922        3.1256879965       18.8111281153
  H         4.1428180597        2.4442473723       17.3476105373
  C         2.6054827959        1.4138451280       18.5255919718
  H        13.9142649460        3.3067351179       20.5178717546
  H        14.6566528496        1.8420324518       20.5397478313
  C        14.3588480084        2.7194310079       22.4847513745
  S         9.8211759793       10.0389634165       17.1062216269
  N        10.2812680016        9.5348023466       15.6358722080
  C        10.3755916570        7.3839751506       14.4633140127
  H        10.5629930106        5.2451181256       13.9202130737
  C         3.8399363820        0.9165723390       35.8924111215
  N         3.9205492368       -0.4430502767       36.0155301302
  O         4.4018637842       -2.2135281390       34.7632993348
  H         1.7583732841        2.1208541351       18.3249992071
  H         2.3996619698        1.2034112483       19.5813955436
  C         2.4240983876        0.2450200952       17.5888938676
  H        15.0812631120        3.5212931425       22.4465519601
  H        13.4662272788        3.0777585491       23.0049976528
  C        14.9168693030        1.5070184327       23.1431379662
  C        10.8110111726        8.0535811990       13.2959329647
  S         3.7499162818        1.9314891762       37.3662123262
  C         3.7201873627       -1.2011573996       37.2072018088
  H         1.9381666069        0.5579339803       16.6823808917
  H         3.4314420671       -0.0984000706       17.2453933345
  C         1.7343757204       -0.9692919979       18.3423328449
  H        14.9987091171        0.7172106571       22.4241020795
  H        14.2974562241        1.0678756065       23.8662132632
  C        16.2929020478        1.7374520777       23.7764131197
  H        10.8187817562        9.0962929015       13.3677274563
  C        11.4673268984        7.7435600907       12.1185690561
  H         2.9043117613       -0.8007711897       37.7653040841
  H         3.3578560635       -2.2633758813       36.9671027380
  C         5.0869613473       -1.3106927338       37.9334592875
  H         0.8237510237       -0.5777110075       18.8475729469
  H         2.3649156337       -1.2976792252       19.1355870979
  C         1.4259148108       -2.1682507710       17.4069767518
  H        16.3445820955        2.7577568850       24.2919160067
  H        16.5359711886        1.0552576646       24.5689091097
  C        17.3266368805        1.7402060780       22.6284720123
  S        11.9664731152        6.1144324771       11.7109397018
  C        11.8083162700        8.8231744250       11.0847965955
  H         5.4886463406       -2.3153365441       37.8562594159
  H         5.8258040250       -0.6974866296       37.3995011974
  H         5.1858683628       -0.8788867533       38.9360571344
  H         0.9945038627       -1.6922325069       16.5005519665
  H         0.8271852828       -2.9582916965       17.9020032897
  H         2.3874224605       -2.4611902071       17.1167731031
  H        18.3829286293        1.7870493998       22.9577156297
  H        17.1293039599        2.5296660447       21.9497443461
  H        17.2943802077        0.8319071105       21.9801075961
  C        12.4272310470        6.9132289828       10.1853794781
  N        12.3733703734        8.2186532641       10.0518296283
  O        11.5581120976       10.0200843692       11.2884209189
  S        12.8069179156        5.9214238089        8.7739291829
  C        12.5460790255        8.9545644779        8.8385684589
  H        12.8451970311       10.0141144729        8.9955657538
  H        13.3127670407        8.4904326165        8.2271029082
  C        11.2778558395        8.9290588273        8.0624353516
  H        11.0193227182        9.8961293872        7.6565420745
  H        11.4580589425        8.2414966290        7.2198100449
  H        10.4178656698        8.5778403094        8.6867173014
  H        21.3444505009       11.1570215946        3.5388527438
  C        22.0297423454       10.4062990152        3.7327631540
  H        21.4440232980        9.4682750521        3.7887428344
  C        22.6221155651       10.5836070471        5.1477353257
  C        23.0424589598       10.2447458400        2.6210657296
  C        21.4719194357       10.6396946006        6.1213024560
  H        23.1635007355        9.6401746860        5.3745916558
  H        23.3738881177       11.4403174489        5.2481749837
  H        22.5407770014       10.2331156853        1.6279060068
  H        23.6078030197        9.3013635512        2.7203068486
  H        23.6957946618       11.0573259816        2.6227259644
  C        21.0176482409        9.3996803030        6.7238035868
  H        21.8695855151       11.2895550479        6.9194277370
  H        20.5811458928       11.1268869042        5.6829160053
  C        20.2709533335        9.5666738628        8.0702100842
  H        21.8863951065        8.7360700161        6.9792582338
  H        20.3712239075        8.8858557672        6.1288527853
  C        19.0677410844       10.5769883826        8.0571963814
  H        20.9386858373        9.9931686504        8.8587819134
  H        19.8897878904        8.5675154593        8.4153125485
  C        17.8332805992        9.7883035897        7.4978820675
  H        18.9339315250       10.9781837789        9.0552884670
  H        19.2811531541       11.4085044723        7.4744681679
  C        16.6523513377       10.6605356243        7.2399604072
  H        17.5256654702        9.0181212229        8.1446478329
  H        18.1666273679        9.3564320509        6.5375171756
  C        16.9869648140       11.9915954034        6.5745527322
  C        16.1272346701       11.3966210421        8.4372895848
  C        15.5606226452        9.9593772776        6.4737067899
  C        16.6868850174       13.0855073009        7.3290648722
  C        17.5539222059       12.2652255473        5.3155762269
  C        16.1554503750       12.7325187063        8.5473294201
  C        15.5764978067       10.7467833323        9.5352516978
  H        15.8727545895        9.4200093107        5.5752180384
  H        15.1857777848        9.1359495734        7.1001937154
  C        14.3498702004       10.8771348087        6.0918282404
  S        17.0974900067       14.5969825955        6.4587009347
  C        17.7225071600       13.6505593348        5.1254660585
  H        17.6589905045       11.4238829782        4.6248234475
  C        15.8121538298       13.3858366107        9.6394725508
  H        15.6008686742        9.6956950551        9.5235257400
  C        15.1439547715       11.4071825711       10.6660230270
  H        14.5992687033       11.7908955879        5.5419313220
  H        13.8474149324       11.3522778307        6.9584833081
  C        13.3449018148       10.1460122924        5.1977912534
  C        18.1811542775       14.3610658883        3.8179228175
  C        15.2004415499       12.7861852297       10.7497673456
  H        15.8775076721       14.4310136672        9.6173042023
  C        14.7316346937       11.0639729860       11.9528823548
  H        12.4293183375       10.6893416071        5.3228348469
  H        13.1546571802        9.1089614657        5.5407127535
  C        13.6337023811       10.4346839119        3.7376940681
  C        18.1686026011       15.7549091114        3.5224975308
  C        18.5738438578       13.5429489461        2.6666873526
  C        14.6810658275       13.4429843452       11.9783010526
  C        14.4673630212       12.1347257167       12.7008996258
  S        14.6547138132        9.5228925400       12.7716936433
  H        14.6050573467       10.2134255452        3.4179356195
  H        13.5305496669       11.5299915960        3.5886647275
  C        12.6411061309        9.7772710191        2.8548486309
  N        17.7485014681       16.7849447364        4.4118412694
  C        18.3736815871       16.2381590621        2.2607737486
  C        19.0316271438       14.0946044506        1.5124056820
  H        18.3519960088       12.4700497518        2.6062923093
  C        13.4243406402       14.1602959596       11.6516131181
  C        15.7617325890       14.3279881517       12.7482017155
  C        14.0659620209       11.6992555071       13.9856481582
  C        14.0706233823       10.2972931490       14.1409730045
  H        12.7197322337        8.7702719317        2.7179326085
  H        11.7203721000        9.9862759300        3.3499913731
  C        12.5695917257       10.4068427838        1.4619018316
  S        17.6060443958       18.2137459534        3.5708548718
  N        18.1440753816       17.6341129335        2.1734633880
  C        18.9384198443       15.4866468369        1.1867315988
  H        19.2304300111       13.4158756831        0.6725270168
  H        13.4935100825       14.9214472514       10.8519941021
  H        12.9835532996       14.7111060999       12.4263973408
  C        12.2901974566       13.2798510742       11.1616034285
  H        15.8950748632       15.2218968834       12.2028774641
  H        15.4729608941       14.5909783211       13.7870633061
  C        17.1344508729       13.6094540754       12.8239622824
  H        13.9015922364       12.4724494580       14.7639250822
  C        13.7193361763        9.4635475539       15.4107124227
  H        13.1389724107       11.3283949561        1.4484755488
  H        11.5286928801       10.7246447069        1.2419961888
  C        13.0415684957        9.5335076407        0.3518841663
  C        19.0603578332       16.1031210433       -0.1444012899
  H        12.4877647143       12.8367423081       10.2062400074
  H        12.0458519578       12.5127678431       11.8845350752
  C        10.9746204210       14.0283360058       10.8765743680
  H        17.4278946994       13.3462656915       11.8032907522
  H        16.9670974951       12.6388210027       13.3068579772
  C        18.1692530443       14.4971122594       13.6125253291
  C        13.7074456536        8.0228750481       15.5780274721
  C        13.4134006993       10.2403368226       16.6401420908
  H        14.0409228994        9.1488411727        0.6076962336
  H        12.4411570505        8.6393709456        0.2287149576
  C        13.1711694191       10.2298921516       -0.9860255766
  H        18.8147809423       17.2205736662       -0.1932616761
  C        19.2502546461       15.4508648789       -1.3677320956
  H        11.1711025424       15.0389728884       10.4475353583
  H        10.4598231582       14.3012558296       11.7948973355
  C         9.9758840348       13.2656133196       10.0789385628
  H        18.4792481621       15.4175053621       13.0628312686
  H        17.6703779707       14.7958363656       14.5192559791
  C        19.5341367800       13.7901449027       13.8255311122
  N        14.0714124930        7.1219672297       14.5412017520
  C        13.4718524163        7.4196837084       16.7828725286
  C        13.0054339058        9.6424524635       17.8022864144
  H        13.5179232465       11.3019346144       16.7114913309
  H        12.4313291434        9.7922375270       -1.7131490011
  H        14.1625512203       10.2722128201       -1.3645744439
  H        12.7960999873       11.2291704013       -0.9500811061
  S        19.4113631839       13.7796185635       -1.8084550298
  C        19.3467678488       16.3285603658       -2.5449362561
  H        10.5198702957       12.9181881887        9.1799566933
  H         9.5730864072       12.4551026271       10.6969300043
  C         8.8836599617       14.2342734706        9.6111923323
  H        19.6632585925       12.9831685777       13.1533132913
  H        19.5583753785       13.3606482725       14.8355432879
  C        20.7901106272       14.6010388794       13.4992712007
  S        14.1232047787        5.6155724443       15.2115705234
  N        13.7176923882        6.0424099751       16.7048232580
  C        13.1018447544        8.1159853297       17.9060888978
  H        12.8338461722       10.2871908937       18.6608080805
  C        19.7056544542       14.2916509584       -3.4906612839
  N        19.7690158957       15.6272270482       -3.6109198759
  O        19.1200953214       17.5499424493       -2.4294076636
  H         8.5211174515       14.8778954520       10.4524096706
  H         9.4637439475       14.9274850713        9.0328669113
  C         7.8136988975       13.4831485878        8.7202824968
  H        21.6783837995       13.9414785854       13.5097195630
  H        20.6535429585       15.1637755404       12.5767595111
  C        20.9070292583       15.6095255396       14.6479821003
  C        12.9805394192        7.4643954926       19.1408198271
  S        20.2839736999       13.2428262246       -4.7535144736
  C        19.8866334691       16.2912658453       -4.8408216448
  H         8.2426384121       13.7240002258        7.7546130621
  H         7.8378616263       12.3784504608        8.7756713602
  C         6.4065831210       13.9497872644        8.8781836788
  H        21.2334992058       15.1570437549       15.4761502618
  H        19.9243332550       16.0880072672       15.0010110980
  C        22.0749955783       16.6062006866       14.3874411530
  H        13.3215231302        6.4061742051       19.0598888342
  C        12.4425402532        7.7728033760       20.3946861396
  H        20.6616795623       15.7803950263       -5.4310662435
  H        20.2640725013       17.2334949919       -4.6074921343
  C        18.5080435274       16.3336981313       -5.6543165703
  H         5.7174791550       13.6432233559        8.1114706775
  H         6.4278497884       15.0624836205        8.8957478292
  C         5.7351453101       13.5463840359       10.2029949584
  H        22.3235180527       17.0648550885       15.3434372040
  H        22.8254939017       16.0124604144       13.9205395245
  C        21.7279672101       17.6710120306       13.3830884350
  S        11.5501569557        9.2637668098       20.8619740288
  C        12.4411862781        6.7315224589       21.4067174906
  H        18.4325829143       15.6872114477       -6.4715610155
  H        18.3275186123       17.2702337648       -6.1531741276
  H        17.6614157279       16.1513531373       -5.0359036685
  H         5.3854247161       12.5564437355       10.0327927143
  H         6.4840240521       13.4680335537       11.0365742249
  H         4.8375176579       14.1272416786       10.6145794183
  H        21.3764070803       18.5315050293       13.9666287080
  H        22.7052859405       17.9551985744       12.9979557910
  H        21.0173673517       17.4221465764       12.5063004189
  C        11.3472961454        8.5088741905       22.3677017156
  N        11.7408797469        7.2214057000       22.4139303220
  O        12.8942870107        5.5946694962       21.3011860617
  S        10.6249354900        9.2503964146       23.8410582672
  C        11.4349175940        6.4051903142       23.6385879211
  H        11.2379217528        5.3682370044       23.2071216744
  H        10.5735112853        6.7937314336       24.1771115704
  C        12.7092986212        6.1884403882       24.4814356354
  H        13.2951957518        5.3007805797       24.2411115814
  H        12.6140005948        6.2531231503       25.5980744672
  H        13.2724956838        7.0131542004       24.1838301497
