352
 i =    27300, time =    27300.000, E =        24.7988057805
  H        10.7812439007        7.3026944630       32.3683754829
  C        10.8946790487        6.2139859505       32.2258670445
  H        11.8096554127        5.9557857583       31.8301741558
  C         9.8565760391        5.8763268868       31.1165955693
  C        10.6098834141        5.4241765065       33.4929366341
  C        10.2429043633        6.3626827408       29.7242209350
  H         9.6674815340        4.8146407430       31.0641908048
  H         8.9273288161        6.2914416456       31.3991241263
  H         9.9741898913        5.7258064582       34.2601338434
  H        10.2807649957        4.3398995020       33.3124885563
  H        11.4673599400        5.3206409597       34.1681838574
  C        10.3233152068        5.1519047723       28.6958263828
  H        11.2031929417        6.8126881169       29.8800716572
  H         9.5739111269        7.0910450877       29.4082884964
  C        10.6774260270        5.3516731974       27.2261937993
  H        11.1456266140        4.5624125974       29.1308045344
  H         9.4128803766        4.5139546653       28.7803987396
  C         9.6656014153        4.7651017360       26.2698510430
  H        11.6023608005        4.8141397615       26.9786091234
  H        10.8799531967        6.4238461012       27.0090851781
  C         8.5230503606        5.6950677598       26.0296364344
  H        10.0893276069        4.5158139656       25.3099028654
  H         9.3612535325        3.7947456436       26.6147450989
  C         7.3380942448        5.0416013121       25.2674093212
  H         8.1470059260        5.9989588200       27.0023472528
  H         9.0169276840        6.5216892434       25.5564241409
  C         6.9423756776        3.7028013942       25.8901087495
  C         7.7377302712        4.3394151097       23.9845208293
  C         6.0819381551        5.8379549421       25.0829337628
  C         7.2155490241        2.5568742827       25.1412009226
  C         6.3278123595        3.3081868880       27.1248129737
  C         7.7283769182        2.9770677759       23.9190514523
  C         8.2065807663        5.0475870401       22.9089470075
  H         6.2046658903        6.5909063332       24.3637945638
  H         5.8335905851        6.3011834436       25.9946293797
  C         4.8828464412        5.1479671994       24.5199505348
  S         6.7933246149        1.1024665827       25.9497344464
  C         6.2022468105        1.9699051178       27.3016446074
  H         6.1730286449        4.0640374040       27.9030327330
  C         8.1214129267        2.4378408423       22.7618033481
  H         8.1225499744        6.1241508102       22.9757224067
  C         8.6501603248        4.4812398982       21.7709351186
  H         5.1039760010        4.8126433910       23.5607919851
  H         4.6955491151        4.1676957052       25.0192726448
  C         3.5976619760        5.9920596976       24.4888873259
  C         5.6530587438        1.3363254230       28.5598298976
  C         8.6182512374        3.1402803906       21.6483425761
  H         8.1500974915        1.4212200315       22.6758189499
  C         9.0691661054        4.8632662414       20.5517987115
  H         2.7443989419        5.5223716382       23.9014493267
  H         3.7778110249        6.9983951383       24.0574888554
  C         2.9268171757        6.2060722304       25.8760388940
  C         5.8024585313       -0.0304164250       28.9018693673
  C         5.3420519809        2.2011965204       29.7227004881
  C         9.0379479126        2.4510622197       20.4647121428
  C         9.2978048645        3.7743864175       19.7459639521
  S         9.2833321127        6.3325691694       19.7972953010
  H         2.1243755209        6.9074613774       25.5767568326
  H         3.5910868184        6.6042028503       26.6232818858
  C         2.2885253135        4.9054511285       26.4808922009
  N         6.2235851586       -1.0777532897       28.0250183608
  C         5.6752892781       -0.5532423075       30.1566754008
  C         5.0942803734        1.6995440642       30.9821984088
  H         5.0337027280        3.2280538307       29.5869856733
  C         7.8947273039        1.6322348196       19.7522346620
  C        10.4164999629        1.7028827725       20.6068981793
  C         9.6549527888        4.1862840084       18.4862776809
  C         9.7822719751        5.5176091987       18.3660041611
  H         1.5807696257        4.6911802240       25.8056349974
  H         3.0130217668        4.0440923607       26.4787855333
  C         1.6830461779        5.0302602571       27.9164244450
  S         6.3623877687       -2.5119453107       28.8211135428
  N         5.9494333339       -1.8984566073       30.2702040873
  C         5.2216958284        0.2307516564       31.2807050181
  H         4.8441462548        2.3679498319       31.7853531094
  H         7.2798289692        1.1125649662       20.4311923049
  H         8.3730951505        0.8532935070       19.0610923674
  C         6.8768881723        2.3896984517       18.8299145332
  H        10.5332038297        1.0787129652       19.7032583901
  H        10.1762836569        0.9232332415       21.2719081970
  C        11.6684725274        2.5769937262       20.8362202243
  H         9.8219111955        3.4120607275       17.7313267449
  C        10.1055689805        6.3026442352       17.1032732176
  H         0.9787027242        4.2055195200       28.1068799067
  H         1.0594577544        5.9286039875       27.7656521127
  C         2.5969887539        5.1017605023       29.0945861116
  C         4.8949127417       -0.4420297303       32.5107195711
  H         7.2976880559        2.7422866845       17.8735505400
  H         6.4866495451        3.2186429686       19.2940880061
  C         5.7784122548        1.4389834736       18.3763531986
  H        11.5806091489        2.9932687364       21.8723711545
  H        11.7009724085        3.4282367662       20.1867545750
  C        13.0498177869        1.9195563934       20.7424544258
  C        10.0796451424        7.7334884153       16.9667888993
  C        10.4409438827        5.6397979707       15.8202027641
  H         3.2487190677        4.1936523509       29.0486071015
  H         3.3449569868        5.8527333948       29.0373006554
  C         1.8311415735        5.1880087388       30.4423326396
  H         4.7928869909       -1.5046048284       32.4371366139
  C         4.6462924078       -0.0560529067       33.7927754349
  H         5.3877377732        0.8231369425       19.1787121134
  H         6.1415257427        0.7438567739       17.6350053597
  C         4.6674629156        2.2199979816       17.6998630840
  H        13.0341269160        1.1481921336       21.5484295262
  H        13.2967569135        1.5425017601       19.7630441721
  C        14.0887780442        2.9395687365       21.0431172784
  N         9.7903469352        8.6335496267       17.9822836252
  C        10.2880638347        8.3969819923       15.7532129475
  C        10.6505360283        6.3037803721       14.6093711819
  H        10.5624039068        4.5848856806       15.7465204104
  H         2.4818407769        5.5740282204       31.2359884840
  H         0.9678828124        5.8597651924       30.3768215478
  H         1.3643952988        4.3015720707       30.7153184587
  S         4.5638038325        1.5176472229       34.2777891182
  C         4.6149731958       -1.1317984668       34.7991858732
  H         4.4935607611        3.1004546711       18.2536612809
  H         4.9761172199        2.4801914543       16.6815023194
  C         3.3116607182        1.5916310682       17.5877823081
  H        13.8493057027        3.8926142182       20.5917246246
  H        15.0245714408        2.6688369315       20.4932779761
  C        14.4272063732        3.0175710373       22.5217194769
  S         9.7852891409       10.1127444907       17.4361372665
  N        10.2150168351        9.8358455806       15.8886807442
  C        10.6637553387        7.7607162858       14.5268051073
  H        10.8903518241        5.7173079508       13.6933459611
  C         4.5045483015        0.8489255211       35.9050600422
  N         4.4120894383       -0.5258011214       35.9706617304
  O         4.6039975619       -2.3286859651       34.5712788210
  H         2.7509667783        1.9890663075       16.7261856077
  H         2.6869010096        1.7126100746       18.5084695101
  C         3.3564296695        0.1624647507       17.1578676115
  H        15.0028399219        3.9539408942       22.7048844080
  H        13.4666990071        3.1949123524       23.0842246247
  C        15.1483139397        1.7918761981       23.0152801858
  C        10.9226407412        8.5776909001       13.3780162824
  S         4.3272203638        1.6931010907       37.4623190032
  C         4.5880231539       -1.2679512735       37.2317266966
  H         3.4108227121        0.1043152915       16.0562758741
  H         4.2227773108       -0.3599598251       17.4884066500
  C         2.2473088305       -0.6949303414       17.6295785866
  H        15.2028325186        1.0217070350       22.2056747867
  H        14.5851285359        1.3344831135       23.8165239985
  C        16.5136420630        2.1647094288       23.5796236715
  H        10.6938334461        9.6549725758       13.3966025251
  C        11.5447280175        8.3603779102       12.1792874120
  H         4.1505538487       -0.6657289871       38.0762948332
  H         3.9987600070       -2.2168140194       37.1407085098
  C         6.0952502913       -1.4263332373       37.5445397542
  H         1.4524470033       -0.5347913614       16.8864515328
  H         1.9446303466       -0.4296988292       18.6384598675
  C         2.6019339860       -2.2623582085       17.7101519513
  H        16.5122859300        2.8735102676       24.3343446277
  H        16.8848003634        1.2254956685       24.0538360927
  C        17.4944884288        2.6915427207       22.4485413599
  S        12.2934139287        6.8912451875       11.6981583623
  C        11.6658786907        9.4826206674       11.2213210518
  H         6.4222001941       -0.4495029836       37.8754627581
  H         6.4146930515       -2.1798846825       38.3110294182
  H         6.6849266635       -1.7500625860       36.6978210469
  H         3.3194295727       -2.4356451425       18.5794066655
  H         3.1117488387       -2.6388804093       16.8843688080
  H         1.7615655375       -2.8281778002       17.9339097604
  H        18.5145929805        2.4279549566       22.6187276238
  H        17.4351494642        3.7626431412       22.3412203941
  H        17.3264020560        2.2918366627       21.4576516998
  C        12.6095083128        7.7183998372       10.1426490255
  N        12.3525582055        9.0775115629       10.1415276509
  O        11.1120049088       10.5809799361       11.3138918562
  S        13.1668455938        6.9182343265        8.6674652266
  C        12.4218375250        9.8822315339        8.9452563107
  H        12.4323997232       10.9431016828        9.1790935668
  H        13.3107223644        9.7101448314        8.3034707224
  C        11.1868024692        9.5377959699        8.1352174845
  H        10.3305671431        9.4512736214        8.8414239805
  H        10.9349657599       10.2874992550        7.4190533133
  H        11.2941486995        8.5614770296        7.6959122910
  H        20.7684691458       12.1069779458        3.2601418520
  C        21.1319668790       11.1142354031        3.1234090002
  H        20.3163735805       10.5126927467        3.0891740352
  C        22.2322878267       10.7222889934        4.1315255010
  C        21.7393142623       10.9233836834        1.6671651045
  C        21.7846034572       10.7126440293        5.5827251899
  H        22.6369942020        9.7412009526        3.8297037689
  H        22.9086050379       11.6190461923        4.0186553896
  H        21.8569950400       11.8666796094        1.1117974609
  H        21.0923882343       10.2506085871        1.0604024864
  H        22.6060395763       10.3766635749        1.7967348830
  C        20.7144737076        9.6614847514        5.8412907900
  H        22.5971956873       10.4274062913        6.1632158205
  H        21.4908890748       11.6897611649        5.9661920183
  C        20.2263044171        9.7826969026        7.2735919793
  H        21.1646801138        8.6229986372        5.6401420133
  H        19.8554855339        9.8559899252        5.2534451208
  C        19.0324201696       10.6907785104        7.4352653547
  H        21.0430260959       10.0853280905        7.9498323611
  H        20.0019431031        8.8175156009        7.6265110845
  C        17.6749491285       10.0687824933        6.9874928751
  H        18.9349448016       11.0992660717        8.4730691370
  H        19.1848434760       11.5884965590        6.7762093088
  C        16.4904951223       11.1237185384        6.8351186326
  H        17.4357542779        9.2601817054        7.6656777592
  H        17.8123883591        9.6210998914        5.9911538513
  C        16.8055404031       12.4462900826        6.1026178563
  C        16.1928323717       11.8718987250        8.1008356411
  C        15.3204369139       10.3418818103        6.2633862242
  C        16.7316778150       13.5981132815        6.9645138578
  C        17.2895514203       12.7569518993        4.8165860260
  C        16.2877045318       13.2193372854        8.2164312146
  C        15.7517537356       11.1965886940        9.2200948663
  H        15.7925323607       10.0344893850        5.3043369634
  H        15.1137457704        9.4611983359        6.9505386737
  C        14.0771728393       11.1719004503        5.9901488359
  S        17.4098307491       14.9528835050        6.1302151526
  C        17.6281647601       14.0832120925        4.6613339391
  H        17.5023198708       12.0389868628        4.0982017051
  C        16.0015242661       13.8693980500        9.4016909362
  H        15.7173471539       10.1158160072        9.2412040937
  C        15.3333957408       11.8241889222       10.3882233499
  H        14.3579067956       12.0908494144        5.4845716046
  H        13.7110083936       11.6882866156        6.9402268768
  C        12.9769737413       10.4684172644        5.2695431485
  C        18.0612252791       14.7843481349        3.4165520894
  C        15.4614077724       13.1728824384       10.5259956727
  H        16.1658845264       14.9078540516        9.4875619431
  C        14.9609248749       11.4467730330       11.6605667323
  H        12.0762697360       11.0960909597        5.4682156137
  H        12.7610968876        9.5309924180        5.6833597688
  C        13.1864090241       10.4880730612        3.7199868756
  C        18.0528534641       16.1690828817        3.1676850782
  C        18.4467531349       13.9590758964        2.2727798681
  C        14.9858742822       13.9014807320       11.8562330120
  C        14.6951721274       12.5299857121       12.5133507643
  S        14.7259479735        9.9266075832       12.5439228496
  H        13.8238963622        9.6042677930        3.4792824998
  H        13.7251955776       11.3963225376        3.4891741011
  C        11.8801219292       10.4406349476        3.0269968363
  N        17.6910984475       17.1681185265        4.1344324522
  C        18.3300882523       16.7667777505        1.9339101029
  C        18.7140580861       14.5515507331        1.0608729741
  H        18.5285395118       12.8526566164        2.3639578575
  C        13.7239585429       14.7762505803       11.6614250544
  C        15.9835337119       14.6814885553       12.6324164313
  C        14.3494772647       12.1247526895       13.8421700390
  C        14.3212402939       10.7622318154       14.0131174325
  H        11.1819446688        9.9061777369        3.7214631701
  H        11.4552320960       11.4704633810        2.8143678215
  C        11.9208804275        9.7064283742        1.6585802657
  S        17.6033206021       18.6144315639        3.3675336838
  N        18.0588033233       18.1293848572        1.9484164205
  C        18.7011531544       16.0607220371        0.7781601619
  H        18.8912829245       13.8184255248        0.3142122227
  H        13.9044212826       15.5636964091       10.9783434812
  H        13.4409132717       15.4059051026       12.5481199365
  C        12.5490270098       13.9140016039       11.2281067934
  H        16.2756710792       15.5545424016       12.0413596565
  H        15.6101803092       15.1088473082       13.5451744345
  C        17.2167182705       13.8349684047       13.0648268064
  H        14.2207721353       12.9170162304       14.5754982505
  C        14.0444914500       10.0425108586       15.2640372588
  H        11.0704872150        9.0791296920        1.4620289632
  H        12.8509997359        9.1327254371        1.6500863714
  C        11.8009602565       10.6047052764        0.3759771025
  C        18.8381389732       16.7035792088       -0.5076826511
  H        12.7656795141       13.5884461580       10.1721755909
  H        12.3466443498       12.9479749277       11.7424454449
  C        11.2686302004       14.7054289953       11.3763285675
  H        17.4673587506       12.9774352637       12.4362747807
  H        17.0754894540       13.3741697707       14.0702285026
  C        18.4520525696       14.7883163649       13.3023338843
  C        14.0491478644        8.6284934082       15.4462911133
  C        13.6464510857       10.7674292971       16.4531158375
  H        11.4125416590       10.1240135644       -0.5052578952
  H        11.1403777260       11.4037039814        0.5593970037
  C        13.1849179681       11.0753441156        0.0433074316
  H        18.7031636559       17.7768001068       -0.5052648734
  C        19.1284230085       16.2082400272       -1.7411801726
  H        11.1852498138       15.7627922235       10.9082468729
  H        11.1108377111       14.8206925529       12.4508388335
  C        10.0769077667       13.8408483512       10.9064792180
  H        18.5908746004       15.2180378170       12.3059883955
  H        18.2193749162       15.5641470914       14.0123807313
  C        19.7149310618       14.0875618104       13.7338139981
  N        14.3701612509        7.6792918002       14.4350727769
  C        13.7240440746        8.0019989481       16.6409712215
  C        13.3053750941       10.1450402674       17.6560772346
  H        13.5352285837       11.8364285841       16.3989574860
  H        13.8901849245       10.2717686278       -0.0451666956
  H        13.5863446202       11.8158449944        0.7040261705
  H        13.2189530969       11.5214441635       -0.9498556223
  S        19.5937333348       14.5770273320       -2.0126398736
  C        19.4031370829       17.1670559573       -2.7983241769
  H        10.4614143207       12.9524360643       10.4471813859
  H         9.5662025162       13.5893324219       11.7500037341
  C         9.1284928603       14.5171417925        9.8702172939
  H        20.0557232591       13.1982836662       13.0657602198
  H        19.4817085153       13.5521316907       14.6479550648
  C        20.8438009861       15.2210536017       13.7806583510
  S        14.2901583355        6.1968793359       15.0729335557
  N        13.7285036731        6.5721558876       16.5512170028
  C        13.3164140551        8.6755340348       17.7908217364
  H        13.0151621429       10.6232102201       18.6031646699
  C        19.6835729538       15.1205188024       -3.6990950123
  N        19.6554701407       16.4723443596       -3.9131165197
  O        19.3071368904       18.3746725890       -2.6657757579
  H         8.4699619459       15.2678484210       10.3320739372
  H         9.8028804942       14.9459903945        9.0897872866
  C         8.1572634472       13.5075758675        9.1534500094
  H        21.7497921666       14.6803050231       13.7601352576
  H        20.7854514048       15.7407949592       12.8346940458
  C        20.8468478856       15.9476958552       15.1533037851
  C        13.0812326171        7.9475406875       18.9827086010
  S        19.9793407134       14.0306254358       -5.0728406347
  C        19.7684052106       17.0784360056       -5.2432324649
  H         8.7712727939       13.0329506067        8.4152321657
  H         7.9135443038       12.6908655327        9.8671689830
  C         6.9902917837       14.2686414922        8.4910331956
  H        21.6587178374       15.5932200635       15.7405592244
  H        19.9667410147       15.7258725294       15.7422754062
  C        20.9548587183       17.4854896656       15.2055944224
  H        13.4285458122        6.9901204700       19.0498264176
  C        12.4837051550        8.2637880618       20.1695892375
  H        20.5611047345       16.7024696636       -5.8135693896
  H        20.0645376241       18.1355036106       -5.0288980014
  C        18.3453648300       17.0863313503       -5.9477189376
  H         6.5234788343       13.6346352107        7.7291111497
  H         7.3217523003       15.1794572644        8.1165889492
  C         5.7793086026       14.4087317614        9.4271222410
  H        20.0494038855       17.8852944426       14.7232352203
  H        21.0177472419       17.6637009360       16.2854304196
  C        22.2383538771       17.9545541111       14.5688164065
  S        11.8876991032        9.7171425774       20.7241001612
  C        12.3655624852        7.1447159771       21.1736902763
  H        18.0551095267       18.0745826795       -6.4924850474
  H        17.5360699947       16.8150137967       -5.2436924878
  H        18.3433841358       16.3351007222       -6.7553730735
  H         5.9499369170       14.8809382044       10.3850916681
  H         4.9680241340       15.0309578599        9.0257123647
  H         5.3004765570       13.4247515199        9.6511826594
  H        22.1275812000       18.1516059800       13.5084280544
  H        22.6265392132       18.8902444957       14.9919291224
  H        23.0107725839       17.1359143697       14.8090834616
  C        11.4752842661        8.8901130207       22.2367453610
  N        11.7899046474        7.5907376765       22.2925636862
  O        12.7949575406        6.0338704445       21.0525918781
  S        10.7694065542        9.7171972208       23.5882554304
  C        11.6339635741        6.7605170022       23.4552389172
  H        11.4422685667        5.7855977124       23.1421332721
  H        10.6967575011        6.9402785229       23.9643616433
  C        12.7996637958        6.8879732606       24.3886204233
  H        13.7948722562        6.8908518472       23.9842502251
  H        12.7323375824        6.2051292767       25.2183263258
  H        12.6712590911        7.9066140683       24.8478855594
