352
 i =    76700, time =    76700.000, E =        25.0431876505
  H        10.3729002786        7.0638104265       32.0133061737
  C        11.1392079705        6.3658633867       32.2003517562
  H        11.9128476769        7.0318115355       32.3506638546
  C        11.3422992802        5.5745165664       30.9265453234
  C        10.8600979342        5.5055074436       33.4549170948
  C         9.9955104886        4.9331114491       30.4492669080
  H        11.7840553113        6.3268839048       30.2348859232
  H        11.9915521898        4.7522543586       31.2311908102
  H         9.8329991544        5.6315388468       33.8813052562
  H        10.9068040512        4.4229504856       33.2741595335
  H        11.6643525771        5.6642546136       34.1921167307
  C         9.3441696509        5.6768742714       29.2250927051
  H         9.2319410664        4.9490400428       31.3299688898
  H        10.1585489322        3.8349936235       30.2328583592
  C        10.1058853481        5.4424383340       27.9321090114
  H         8.2429303102        5.5073780533       29.0921940336
  H         9.2676922820        6.7890762843       29.4384091412
  C         9.2714713136        4.7716113148       26.9154478906
  H        10.9661247218        4.7241538492       27.9994754373
  H        10.5432754645        6.3979352993       27.6376779103
  C         8.1675070165        5.6763408705       26.4765065572
  H         9.9106155552        4.6296135337       26.0570882352
  H         8.8485744767        3.8867435948       27.3571203504
  C         7.0926089632        4.8778008301       25.6912865586
  H         7.7971634255        6.3424830669       27.2682718393
  H         8.7896538904        6.3573088658       25.7895556542
  C         6.6994836745        3.5347617587       26.3982771787
  C         7.5453770340        4.1286827297       24.4756698243
  C         5.8178391126        5.7033775313       25.2556399609
  C         6.8369296943        2.4493125254       25.5324166170
  C         6.1359273027        3.1139812185       27.6470327264
  C         7.3734781500        2.7959910590       24.2692792411
  C         7.9431334027        4.9146118443       23.3224551790
  H         5.3750886927        5.1550933636       24.4795723171
  H         6.1701191487        6.6320550294       24.7625000345
  C         4.7888588774        6.0219251344       26.3519315903
  S         6.2934157470        0.9445410930       26.2635053089
  C         5.9085755192        1.7697460081       27.7840773244
  H         5.8545327337        3.8232127146       28.3815566057
  C         7.7125304359        2.2220490478       23.0596410388
  H         7.8985882656        6.0186803472       23.4440405607
  C         8.2522842451        4.3583497472       22.1660566765
  H         5.0497244082        5.4986156366       27.3458815140
  H         4.8024816870        7.0154465761       26.6497267119
  C         3.3408742407        5.4836566306       25.9707424613
  C         5.5898176599        1.0771389761       29.1218808989
  C         8.2089733519        2.9893803506       21.9622730468
  H         7.5750857386        1.1470160102       22.8631205942
  C         8.7234609114        4.7434514834       20.9391511712
  H         3.2315618382        4.4685254968       26.1551594286
  H         3.0742387316        5.6202981165       24.9115166123
  C         2.2433078903        6.1259096377       26.8697051265
  C         5.6780774471       -0.3402809241       29.4420789175
  C         4.9350380019        1.9058360345       30.1495162187
  C         8.5513878978        2.2861534782       20.6603716880
  C         8.8237110394        3.6704871622       20.0755631608
  S         9.0523173757        6.2573564262       20.1614356277
  H         1.3451072125        6.2849175143       26.3083855139
  H         2.5294384025        7.1045962849       27.2425884084
  C         1.8661864089        5.2035563563       28.1019526374
  N         5.9638978704       -1.3525395724       28.4988945216
  C         5.4285561769       -0.8361757415       30.7369887651
  C         4.6002133822        1.3854812233       31.3913053401
  H         4.5825040496        2.8690637028       29.9313851926
  C         7.3252972234        1.5556554196       19.9759403709
  C         9.7326789511        1.3162723290       20.8928513209
  C         9.2758967573        4.0221032150       18.8423837907
  C         9.3999598340        5.3931364088       18.7088942130
  H         1.0373633419        4.6467834545       27.7564157746
  H         2.7415491258        4.5214999988       28.3067560690
  C         1.5547814040        5.9755715915       29.4053502547
  S         5.9711202552       -2.7839412647       29.3145016656
  N         5.5242387533       -2.1841185391       30.7999929332
  C         4.8780753942       -0.0336812425       31.7788641655
  H         4.1938384228        2.0754196770       32.0610676167
  H         7.0009145958        0.6793503136       20.5894900523
  H         7.6992145862        1.0824416088       19.0572585475
  C         6.2118088611        2.5356391153       19.5460332652
  H         9.8462015087        0.8332886038       19.9642337050
  H         9.4553852571        0.5726368144       21.6597397785
  C        10.8804927177        2.0686705682       21.4420688526
  H         9.4895974582        3.3234369432       18.0787605936
  C         9.7767858965        6.1897311405       17.4821418912
  H         0.7908460894        6.7831754719       29.2162796709
  H         2.4735784684        6.5210147320       29.6203224716
  C         0.9579734477        5.1642493791       30.5807587314
  C         4.5926648130       -0.6883358286       33.0191251818
  H         6.5857057593        3.1710187951       18.7665488252
  H         6.0740403256        3.3012775843       20.3350873286
  C         4.8814491520        1.8923503166       19.2273859876
  H        10.6230625848        2.5328578580       22.3983687081
  H        11.0500957161        2.8923095158       20.6490023199
  C        12.1650444660        1.2778137339       21.7195701919
  C         9.9516304671        7.5606069698       17.3560412921
  C        10.0824106670        5.3591736671       16.3059949667
  H         0.1939682648        5.7298834285       31.1455844292
  H         0.4133019291        4.2962138146       30.0599469345
  C         2.0891584572        4.6397374536       31.5938630215
  H         4.6747227215       -1.7588252287       33.0632833655
  C         4.3354668144       -0.1279757390       34.2465136959
  H         4.1591483882        2.7623859096       19.1773457305
  H         4.5368419111        1.2074098945       20.0137986507
  C         4.9538246654        1.0837632151       17.8634723930
  H        12.0975826264        0.6518998526       22.5841262448
  H        12.3668522969        0.6143711781       20.8742586211
  C        13.4024677992        2.1618812076       21.6794715851
  N         9.7833712661        8.5325713190       18.3621729552
  C        10.2659283806        8.1726547623       16.1589399290
  C        10.4395664457        5.9060726475       15.0927197432
  H        10.0387290367        4.2948566675       16.4025049192
  H         2.6358521829        5.4228144253       32.1842992599
  H         1.5117112430        4.0392897457       32.2852142488
  H         2.8404326503        3.9259604778       31.1475179856
  S         4.1156227000        1.5461038407       34.6541998331
  C         4.2018806118       -1.0869236705       35.3661748697
  H         5.1519825461        1.6037099027       17.0330379348
  H         5.6541503755        0.3039031836       17.9639202353
  C         3.5756496396        0.4758272999       17.6598729145
  H        13.1773772162        3.0887441531       22.2202501797
  H        13.6662426203        2.4861286209       20.5994111064
  C        14.5666567895        1.4821019021       22.2726917496
  S        10.1106733173       10.0063109547       17.7683440311
  N        10.2173546428        9.5444673292       16.2368799743
  C        10.5728298857        7.4106331719       15.0060036428
  H        10.7262173925        5.3008048232       14.2789507354
  C         4.0549465626        1.0394806871       36.3102109384
  N         3.9214021023       -0.3477067226       36.4654659739
  O         4.4317980834       -2.2912773745       35.3328568284
  H         3.5349377480        0.3154747928       16.5792414563
  H         2.7845449324        1.2577732770       17.8695097002
  C         3.3283683150       -0.7482230824       18.5424285067
  H        14.2667364033        0.6806629646       22.8695284923
  H        15.0349435536        0.9575799075       21.4222620747
  C        15.4845989286        2.3861199908       23.1115571382
  C        10.9837092624        8.0793414764       13.8512150083
  S         3.7355030302        2.0402266319       37.7369809369
  C         3.8677115859       -0.9963689056       37.7684271824
  H         4.1521756087       -1.4474068092       18.4165932210
  H         3.4831125558       -0.4044452905       19.5738953037
  C         2.0793958282       -1.5392354856       18.2883415611
  H        14.8242133915        2.7369878079       23.9524226280
  H        15.7788051828        3.2804050962       22.5922357123
  C        16.7738021288        1.6948859676       23.5149733878
  H        10.7304925285        9.1208214067       13.8935253572
  C        11.3583166944        7.6822446004       12.5842131684
  H         3.1827269429       -0.4507379370       38.4194589439
  H         3.4315333577       -1.9569455850       37.6345003181
  C         5.3245926477       -1.1831461933       38.1934265191
  H         1.1959276159       -0.8808300322       18.1147680666
  H         1.9134879675       -2.0997113472       19.2073798976
  C         2.2381668119       -2.5938666671       17.1765099930
  H        17.1273544125        2.2494281558       24.3960587683
  H        16.5407975330        0.6718308183       23.7837822534
  C        17.8554492818        1.7697877142       22.3869599959
  S        11.7521493333        6.1030535262       12.0460962065
  C        11.5361756888        8.7388196166       11.5681423204
  H         5.8531299565       -1.6980231407       37.3758891174
  H         5.7057802579       -0.1693067881       38.3365399515
  H         5.3132054232       -1.7509164848       39.0836669437
  H         2.0894520801       -2.0747221354       16.2033647206
  H         1.5648592414       -3.4497944132       17.3247398973
  H         3.2046021763       -3.0924314310       17.0129528678
  H        18.1036767885        2.7696076705       22.1329180674
  H        17.5739723561        1.1870154578       21.4985743542
  H        18.7266304728        1.2423899698       22.6686002850
  C        12.2435363335        6.8698292840       10.4849702684
  N        12.1589828856        8.1930545610       10.4731496293
  O        11.3561605860        9.9172027424       11.7051476939
  S        12.5296508025        6.1204437940        8.9067152518
  C        12.5209646670        8.9664062186        9.3370684108
  H        12.7082751609       10.0099973046        9.5870301923
  H        13.3426436526        8.5462582842        8.8431885014
  C        11.1942246119        9.1579743498        8.5092490911
  H        11.5161258914        9.2611662698        7.4532337764
  H        10.4514338724        8.3881176217        8.5684563117
  H        10.7150128260       10.1077521143        8.7512774991
  H        20.6311318655        9.5211221090        3.0937934511
  C        21.7058377358        9.6913003291        2.9188749456
  H        22.1944439764        8.7149720694        2.8026610830
  C        22.4227327914       10.4609801832        4.0439087242
  C        21.8344787896       10.3891556118        1.5953220578
  C        21.6579183957       10.6292317483        5.3473732987
  H        23.4309740602        9.9927922860        4.2205799524
  H        22.6526508464       11.4731847572        3.7251523093
  H        22.8737445227       10.5121844899        1.5121558441
  H        21.3496392632       11.3718643471        1.5716301697
  H        21.5290355708        9.7924718876        0.7962733081
  C        21.5350507903        9.3656183956        6.1953225377
  H        22.2370312940       11.4246780242        5.8380964989
  H        20.6959030536       11.0960015001        5.2270826945
  C        20.5002572548        9.3770595976        7.2571831246
  H        22.4443754519        9.1378215802        6.6362036739
  H        21.2384640456        8.5584120525        5.5468650638
  C        19.0406569839        9.2725995534        6.6219339108
  H        20.4724075723       10.2582558758        7.7910671656
  H        20.8141308238        8.5234152827        7.8825206381
  C        17.9759352759        9.7088380305        7.6279824634
  H        18.9175778413        9.9283058978        5.7988765379
  H        18.8663812233        8.2363727063        6.2897966097
  C        16.7017714861       10.5366993279        7.1155248984
  H        18.3782778125       10.3613322630        8.3537292484
  H        17.6731198665        8.8012481188        8.1921949916
  C        17.0193432595       11.8092946810        6.4221562114
  C        16.2468467278       11.2411463557        8.3049811382
  C        15.6369814915        9.7720001024        6.3096838386
  C        16.7597862562       12.9498078821        7.1635122124
  C        17.5317331911       12.1699987224        5.1294566179
  C        16.2682229408       12.5995188099        8.3979761808
  C        15.7623575361       10.5340701762        9.3986969585
  H        15.9117921646        9.4328896610        5.3263866477
  H        15.4425090562        8.7959744107        6.7602365027
  C        14.3692754933       10.5832730800        6.1891512838
  S        17.1598943579       14.4131016139        6.3648450540
  C        17.6219577883       13.5048923498        4.9599394185
  H        17.4467884053       11.5055993674        4.3115493273
  C        15.9224567222       13.1777234049        9.5557672844
  H        15.6671129372        9.5004647881        9.5122854865
  C        15.3811831028       11.1540467600       10.5878541979
  H        14.5774005697       11.5575130935        5.7051979324
  H        13.8975708780       10.9008719540        7.1201102832
  C        13.3681108237        9.8957355117        5.2353878293
  C        18.0438813714       14.1428917817        3.6411750961
  C        15.5070449163       12.5222444495       10.7008906016
  H        15.9251897197       14.2306462538        9.6441964950
  C        15.0907716405       10.7793484920       11.8277483323
  H        12.4876265664       10.4691915481        5.4478187166
  H        13.2078379084        8.8403393772        5.3655398116
  C        13.6649230896       10.0536059638        3.7132146358
  C        17.9760884991       15.5139087932        3.3816807673
  C        18.5957661132       13.3125839232        2.5044282636
  C        15.1074091235       13.2267389687       11.9317637456
  C        14.8910383613       11.8712058402       12.6649946851
  S        14.7109741821        9.2406028630       12.5737915953
  H        14.6299558800        9.6017535984        3.4723627880
  H        13.7612804315       11.1453040233        3.5219527054
  C        12.4901757901        9.5165555196        2.8850829512
  N        17.6142898727       16.5426810941        4.2652921964
  C        18.3108608967       16.1064928632        2.1971294379
  C        18.8455860259       13.9507777398        1.2831890888
  H        18.7672535984       12.2342588560        2.5761978884
  C        13.7003801230       13.9678861371       11.9083892101
  C        16.2378431647       13.9402463953       12.5703260952
  C        14.5058649989       11.4292815316       13.9905075621
  C        14.3076870031       10.0903806628       14.0713076183
  H        11.9554156185        8.9174508497        3.5770685045
  H        11.8110971519       10.1726137724        2.5259199599
  C        12.9415309385        8.8034793029        1.6402716551
  S        17.8485605816       18.0156458810        3.6076875665
  N        18.2310062717       17.5132701030        2.0982757358
  C        18.6657991386       15.3537663566        1.0639844256
  H        19.1347829009       13.2753996798        0.4916033410
  H        13.7885675810       14.8818983747       11.3242086074
  H        13.5350848031       14.4376934171       12.8676301063
  C        12.4515350194       13.1195407037       11.5086951679
  H        16.4141053390       14.8990827749       12.0400840119
  H        15.8791456966       14.3018319545       13.4381206103
  C        17.5339771865       13.1886675062       12.8782984152
  H        14.3984392154       12.0969085804       14.8070147316
  C        13.8675606849        9.2845361125       15.2531775040
  H        12.1096332583        8.1437479559        1.3253419501
  H        13.7191739698        8.1222344794        1.9118554232
  C        13.4348783260        9.7549390982        0.5504962391
  C        18.7574495426       16.1338982333       -0.1381082459
  H        12.6094474626       12.4308249852       10.6886599502
  H        12.2093732632       12.6030054884       12.3738805109
  C        11.2278707918       13.9311776906       11.1982612581
  H        17.9604777210       12.8396603524       11.9511668573
  H        17.3739223859       12.2723707990       13.5218663583
  C        18.5735856867       13.9572420046       13.6288853418
  C        13.8930826522        7.8785340308       15.4244042329
  C        13.6232736036       10.0017017286       16.5662496375
  H        13.8536353193       10.5887621768        1.1119084648
  H        14.1410647273        9.2245920112       -0.0899171128
  C        12.2974600667       10.2820298287       -0.3206951056
  H        18.3072283520       17.0522673163       -0.2280085917
  C        19.1508952063       15.7134946737       -1.4117565137
  H        11.3049390916       14.8158978917       10.6200471880
  H        10.8807816178       14.2900325048       12.1361215937
  C        10.1815646001       13.0747045942       10.4097976363
  H        18.4937824415       14.8887155472       13.0775626574
  H        18.3540236936       14.1518274164       14.6821299394
  C        19.9703807347       13.3025865839       13.4683187338
  N        14.2785364299        6.9373038223       14.4513595182
  C        13.4987722892        7.2698049841       16.6390209163
  C        13.3280985462        9.4005804400       17.7727371417
  H        13.6141742567       11.0465634151       16.5978493572
  H        11.8287279772        9.3928985999       -0.7990826107
  H        12.6118307793       11.0313430982       -1.1249263982
  H        11.4124938290       10.5637966729        0.2583490778
  S        19.3995179366       14.0917790127       -1.8257684138
  C        19.1256541705       16.6788252808       -2.5182248426
  H        10.6702895424       12.9150256986        9.5369150725
  H        10.0911272905       12.0947068461       10.9255989859
  C         8.7882989590       13.6941217344       10.2198853648
  H        20.3183980441       13.3582829306       12.4449836839
  H        19.8314366189       12.2114560076       13.6855999786
  C        21.0778789848       13.8195167315       14.4390582862
  S        14.1170717454        5.4588748364       15.1278829036
  N        13.6214511534        5.8522839661       16.6266524651
  C        13.2596313024        7.9127048352       17.8137091544
  H        13.2127444232       10.0077446298       18.6096094018
  C        19.5901268564       14.6768207791       -3.5660085400
  N        19.4902087989       16.0838158628       -3.6319860450
  O        18.9156697602       17.8696516892       -2.4148192039
  H         8.3122958797       13.6116335565       11.1516635079
  H         8.7954280193       14.7436039442        9.9844922750
  C         8.0428889061       12.9404798102        9.1166580748
  H        20.5634823247       13.9876721179       15.3707272515
  H        21.6818300395       13.0136876205       14.7115536112
  C        21.8587294932       15.0577049521       13.8367951666
  C        12.9360302925        7.1075678090       19.0307523448
  S        20.1377169905       13.8746922613       -5.0090575061
  C        19.6095221290       16.8321520530       -4.9198804554
  H         8.5975396452       13.0226979903        8.2372919924
  H         7.9601376027       11.9640429850        9.5077382818
  C         6.6596324157       13.5632243986        8.8839103283
  H        21.5462273423       15.2096283085       12.7749491230
  H        22.9095846503       14.6399193164       13.7320618578
  C        21.8337708762       16.3581640698       14.7000812938
  H        13.1372917494        6.1109217713       18.9173828603
  C        12.4787992098        7.5160561899       20.2617360001
  H        20.3315845933       16.3389306308       -5.6923622749
  H        20.1647879973       17.7681576633       -4.7316557187
  C        18.2099752955       17.1155281061       -5.5964542910
  H         6.3795233962       13.5089863948        7.8563861678
  H         6.7412447589       14.5707668286        9.0501683527
  C         5.6815564611       13.1726118525        9.8913391384
  H        21.8970544971       16.0655701854       15.7164414685
  H        22.6864657544       16.9547751323       14.4704893478
  C        20.5755274638       17.2005135382       14.5206256953
  S        11.9808322462        9.1002086524       20.7825252707
  C        12.2744201417        6.3809526503       21.1875886850
  H        18.3488518135       16.9698439874       -6.6533107074
  H        17.8841071810       18.1255551508       -5.4328129081
  H        17.2720894683       16.5407976481       -5.3215237383
  H         5.5921944480       14.0112913103       10.4970317444
  H         4.7560229165       12.9155119746        9.3900410888
  H         6.0399402794       12.4085512246       10.6221063901
  H        20.7186730528       18.1261087793       15.1287118167
  H        20.3705403942       17.6272159268       13.5705577554
  H        19.6075705070       16.7125053816       14.6992686657
  C        11.7426091005        8.3322403152       22.3149708202
  N        11.8932436442        6.9624234743       22.3317262014
  O        12.5529913446        5.2079080228       20.9984528531
  S        11.2265912561        9.1812180386       23.7788807953
  C        11.7879007025        6.1895074849       23.5396907180
  H        11.7535148875        5.2057225148       23.0828952030
  H        10.8524279563        6.3574429241       23.9684912640
  C        12.9121828494        6.3349351578       24.5250854858
  H        13.9171560490        6.6495444739       24.1844806274
  H        13.0047772263        5.4335479467       25.0615010885
  H        12.6836882923        7.1611985416       25.2528499799
