352
 i =    68600, time =    68600.000, E =        25.2003682970
  H        12.7405884455        5.8908944801       32.5827363439
  C        11.7678292341        5.8191354373       32.1435328672
  H        11.6504334026        4.7962807403       32.1495112006
  C        11.7504868435        6.4515770165       30.7361106143
  C        10.8584235494        6.4080599198       33.1865426672
  C        12.3205589639        5.6687250128       29.5153220567
  H        10.7112261524        6.7117284420       30.4053357809
  H        12.1851796578        7.4670515704       30.7607484097
  H        10.7874440387        5.7525113187       34.0382440582
  H        11.2941930187        7.3567155045       33.4034310567
  H         9.8224859896        6.7498338925       32.8775061087
  C        11.1992680280        4.9297504208       28.7706161839
  H        13.2477206274        5.0657885832       29.6622024135
  H        12.6877235477        6.5162308533       28.8464426950
  C        10.6291362773        5.7517000552       27.6361055338
  H        11.6533498398        4.0949129659       28.2358864230
  H        10.4765046131        4.4599028837       29.4473674529
  C         9.6338347465        4.9778873256       26.7896374970
  H        11.4022625302        6.0017179566       26.8788824703
  H        10.0998394477        6.6172454184       27.9549078367
  C         8.5172444444        5.8030497862       26.2548356493
  H        10.1970393989        4.5434297576       25.9097020893
  H         9.3036248398        4.1362513718       27.2801862461
  C         7.4816986593        4.9962200761       25.4696551029
  H         7.9828744279        6.1616798601       27.1412027989
  H         8.9057317218        6.5729870903       25.6370731875
  C         7.0602083713        3.6341313137       26.1565205020
  C         8.0441437030        4.3023003028       24.2736574311
  C         6.1401868754        5.6790487641       24.9557758536
  C         7.4257189629        2.5705398152       25.3784723280
  C         6.6333948767        3.2232408392       27.4394167267
  C         7.9510271325        2.9196941763       24.1770412241
  C         8.5056251696        4.9810594303       23.1160801881
  H         5.7813540405        4.8879622121       24.4057683677
  H         6.2027544080        6.3323101138       24.1061022771
  C         5.0461743348        5.9151687410       25.9718829502
  S         7.0076158241        1.0518583688       26.1228546287
  C         6.4326434532        1.8675521439       27.5074851269
  H         6.3786423089        4.0033511486       28.1759870944
  C         8.3616444275        2.3328292902       22.9478966076
  H         8.4833107594        6.0665862987       23.2515793194
  C         8.8516285828        4.3989333569       21.9409339791
  H         4.9709976977        5.2061315216       26.8009835367
  H         5.4550820369        6.6895479325       26.6183881204
  C         3.6297678760        6.1252151936       25.4160904242
  C         6.0818583579        1.1690600442       28.8183899663
  C         8.8519895072        3.0618040520       21.8219771443
  H         8.2633166173        1.3172153052       22.8263926487
  C         9.3712493981        4.8041004334       20.7448941690
  H         3.3108692985        5.2097170707       24.9626507389
  H         3.7145675768        6.7978670666       24.6490364487
  C         2.5265482962        6.5286368629       26.4843104122
  C         6.1883131192       -0.2037006622       29.1837777493
  C         5.7362473826        1.9719662688       29.9990049321
  C         9.2872274206        2.3739620505       20.5922330922
  C         9.5370871168        3.7557449586       19.8827029819
  S         9.7488811389        6.2737304420       20.0229865255
  H         1.7504527893        7.1425015616       25.9855265788
  H         2.9115426205        7.1221162207       27.2926116825
  C         1.9841407286        5.2978345616       27.2054249246
  N         6.5487355099       -1.2393701057       28.3325943877
  C         5.9745571835       -0.7605177343       30.4419234136
  C         5.5062620647        1.4420706328       31.2848855021
  H         5.5997589175        3.0515494083       29.9412348091
  C         8.1413340848        1.6793163444       19.7818306125
  C        10.5533037099        1.5378692159       20.8380433591
  C         9.9561691747        4.1574661388       18.6141497934
  C        10.1189228225        5.4832776448       18.5408011303
  H         0.9369204476        4.9781484708       26.8921357721
  H         2.6274135879        4.4282567131       26.9107065570
  C         2.0372587874        5.3079182261       28.7564957930
  S         6.5068959351       -2.7033997938       29.0160758738
  N         6.0668364159       -2.1374097234       30.5155771718
  C         5.6776732617        0.0071233154       31.5616485748
  H         5.2279563566        2.1205457930       32.0300277054
  H         7.8727689810        0.7743744694       20.2382538983
  H         8.5458957027        1.6240005048       18.7884782330
  C         6.8568251056        2.5265819441       19.7726328459
  H        11.0199327608        1.0354610448       19.9351799232
  H        10.3901876621        0.7810352322       21.5459058884
  C        11.6672602817        2.3342325939       21.5581736309
  H        10.1401005302        3.4387173945       17.8715030765
  C        10.4260884374        6.2394428154       17.2562308706
  H         1.3071050363        4.5666753153       29.2051531646
  H         1.6662954933        6.2532218793       29.1585990236
  C         3.3541016276        4.8030182187       29.2992550655
  C         5.4419092248       -0.5760355698       32.8237485045
  H         7.0590067565        3.4275937431       19.1368915954
  H         6.4911161816        3.0264453259       20.6510851791
  C         5.6248043811        1.7520245770       19.3045040037
  H        11.4586735857        2.7113285371       22.5383493635
  H        11.7885459170        3.1663955459       20.9175909187
  C        12.9896203755        1.5347472326       21.7905657075
  C        10.3986993188        7.6505565037       17.0451185667
  C        10.7169850694        5.4628429717       16.0086687061
  H         3.7085306290        3.8537927441       29.0480668581
  H         4.1736585550        5.4118476893       28.8282192271
  C         3.1904528826        4.9962188988       30.8060009504
  H         5.7297668680       -1.6450729566       32.9402793083
  C         5.1608817436       -0.0405732376       34.0647134605
  H         4.7015271857        2.3546501617       19.2919682586
  H         5.4421969719        0.8742782163       19.9195934407
  C         5.7345515249        1.3106147948       17.9082508686
  H        12.8010361337        0.7847823921       22.5116481559
  H        13.2043864256        1.0161467952       20.8657858558
  C        14.1721740382        2.3814739245       22.4113516324
  N        10.0864567461        8.5816756175       18.0292358678
  C        10.7524895732        8.2404001508       15.8483555494
  C        11.0499123839        6.0859542577       14.7955568633
  H        10.6135032776        4.4032899205       16.0863894278
  H         3.4974195565        5.9683870215       31.1960699852
  H         2.2073514771        4.7543988340       31.2242500648
  H         3.7613581630        4.2058259061       31.2204391775
  S         4.6426929690        1.6562378743       34.3668480090
  C         5.1774275408       -0.9598383429       35.2442762035
  H         6.0059271570        2.0991887511       17.1773946437
  H         6.5659610492        0.5833530267       17.7704374347
  C         4.3678138348        0.7357900247       17.4977166930
  H        13.7705791463        3.0427910250       23.1967242295
  H        14.5403702000        3.0131320057       21.6035709058
  C        15.3282815077        1.4650994521       22.7990889817
  S        10.1123780771       10.0414809983       17.3890330221
  N        10.5882932610        9.7026004458       15.8859382104
  C        11.1034796738        7.5505244797       14.6857458016
  H        11.1975878729        5.4853489831       14.0061251673
  C         4.4247058243        1.0759765546       36.0227236873
  N         4.7601610909       -0.2008379915       36.2652318060
  O         5.4731552351       -2.1211161401       35.2024948124
  H         4.6210623791        0.4860855440       16.4891996730
  H         3.6766377533        1.6013109214       17.4731465879
  C         3.7137269898       -0.3726911327       18.3704084688
  H        14.9726040934        0.7049922829       23.5601652311
  H        15.7337939807        1.0065521376       21.9251824499
  C        16.3941125261        2.3248750326       23.4675927899
  C        11.3123653186        8.2422239638       13.3909133223
  S         4.0203624270        2.1125695555       37.3952339404
  C         4.6241150973       -0.8439771819       37.5956329584
  H         4.0591957776       -0.4570234283       19.4197930720
  H         2.7015805986       -0.1314392664       18.5494581575
  C         3.6350405430       -1.6658081221       17.6037533785
  H        15.8963610568        2.8699586249       24.2503576469
  H        16.7107377966        3.0923163700       22.7535143183
  C        17.5885120922        1.6517437455       24.1018442599
  H        10.8181454728        9.1732522595       13.3847310814
  C        11.8781846749        7.8689828956       12.2172129211
  H         3.8768821843       -0.3516862894       38.2351603706
  H         4.1965387113       -1.8014552263       37.5273159184
  C         6.0384235223       -0.9541601500       38.1579751585
  H         3.8296396921       -2.3719981177       18.3686866823
  H         4.3657357104       -1.6427708639       16.7937394815
  C         2.2391287797       -1.8109358408       16.9992220409
  H        17.9724652948        2.3568248160       24.7754814469
  H        17.2679992549        0.7784321082       24.7323610334
  C        18.8223534335        1.2851798563       23.3049543571
  S        12.6099969303        6.3460958612       11.8452415894
  C        11.9483952732        8.8478020251       11.1224918832
  H         6.3650341060       -1.9739623842       38.2502308913
  H         6.7743151821       -0.5206060666       37.5165045233
  H         6.0431129009       -0.4591245950       39.1379748391
  H         1.7785516342       -0.9057431371       16.6826221490
  H         1.6138372042       -2.0083480314       17.8425560947
  H         2.1579992677       -2.4701585863       16.1263127030
  H        19.4192818949        2.1664693535       23.1194462979
  H        18.5647397706        0.8098508287       22.3455609095
  H        19.5211171607        0.6122663501       23.8468950814
  C        12.7473457760        6.9959465068       10.1912934936
  N        12.5526663624        8.3350844922       10.0738330305
  O        11.6078493635       10.0072510637       11.2033972266
  S        13.6009755380        6.1994192720        8.8513329871
  C        12.6337206515        9.2236666685        8.9033808947
  H        12.8207386481       10.3254787878        9.0555662637
  H        13.4371553573        8.8753628277        8.2164108064
  C        11.3285918964        9.0854509846        8.0980431621
  H        11.4646670713        8.4426888918        7.1909645099
  H        10.4801615358        8.7109849407        8.7367873059
  H        11.0312909373       10.0386512135        7.8050461139
  H        21.8491480359        9.2979500886        3.6514953630
  C        22.0313920935       10.3986269465        3.7921808892
  H        22.5693875859       10.7481204751        2.9809140373
  C        22.7497623979       10.7399754677        5.0792701327
  C        20.6537060908       11.0177249930        3.6383622187
  C        21.9813815209       10.6834369321        6.4823187164
  H        23.6329727013       10.0969740293        5.1141574826
  H        23.1507519563       11.7054207703        5.0220029008
  H        20.7144658809       12.1211034274        3.6776406368
  H        19.9098537016       10.5482168547        4.2019632032
  H        20.3155323218       10.9006752111        2.5737282018
  C        21.1872907610        9.3843953510        6.7099721295
  H        22.7181232924       10.7543241081        7.3079624694
  H        21.3769753856       11.5155257157        6.4426672706
  C        20.4710470709        9.3671614356        8.1396769606
  H        21.9173361869        8.5844519189        6.7157671741
  H        20.5442925920        9.1765639914        5.8522935663
  C        19.1960559968       10.3119725908        8.0876186400
  H        21.2440329106        9.7128874677        8.8339969179
  H        20.1417819141        8.4004480595        8.5078764688
  C        18.0048106838        9.7862351885        7.2256821074
  H        18.9385418940       10.4633098426        9.1364154515
  H        19.4711596530       11.2754534924        7.7276852156
  C        16.7084892445       10.6839855184        7.2444869249
  H        17.6288079364        8.7731506505        7.6606357529
  H        18.4165422851        9.5546677460        6.2559025905
  C        17.1013500459       12.0085767872        6.5791446393
  C        16.4529961459       11.4165256894        8.4990870381
  C        15.5117518275        9.8915062775        6.5263334853
  C        17.0383452568       13.1360253751        7.4171091385
  C        17.4679205180       12.3297463436        5.2235933909
  C        16.6091900345       12.7680890141        8.6498305175
  C        16.0267617101       10.7402809806        9.6757183293
  H        15.9792199965        9.5256413000        5.6218626990
  H        15.1951181080        8.9918640216        7.0603195991
  C        14.2993778241       10.7580503064        6.1773874298
  S        17.5967762217       14.5281956445        6.5598580847
  C        17.7595884086       13.6309187401        5.0261718965
  H        17.4667781369       11.6133689338        4.4551561374
  C        16.2770858982       13.3636913562        9.8332132235
  H        15.7961352023        9.7090416188        9.5174212118
  C        15.7826205241       11.3971866524       10.8731238470
  H        14.6143589625       11.6511388470        5.7058019578
  H        13.7852734475       11.1647033002        7.0748074901
  C        13.3147685708       10.0516044545        5.3611726606
  C        18.1822872572       14.2860149613        3.7531719980
  C        15.8696640933       12.6956226739       11.0046706215
  H        16.2521670024       14.3912382047        9.9045957523
  C        15.2656917265       10.9798210801       12.0587823723
  H        12.3969110927       10.6046118679        5.3086834258
  H        13.0546795687        9.0980834511        5.9483960627
  C        13.9126458860        9.8853797790        3.8855138559
  C        18.2480178044       15.6630182126        3.4882560885
  C        18.3545245680       13.3707310665        2.5517193927
  C        15.3779130028       13.3977072514       12.2735272544
  C        15.0695608611       12.0208860950       12.9592747545
  S        14.8012469733        9.4746560721       12.7066016504
  H        14.7201047788        9.0761775948        3.9672699464
  H        14.3892278707       10.8359788815        3.6708119859
  C        12.8259484818        9.5529883374        2.8712388026
  N        17.7770329451       16.7017071812        4.3913199394
  C        18.4497441366       16.1484303136        2.2199883387
  C        18.7564406922       13.9124338964        1.3214143162
  H        18.3576384657       12.3334001746        2.6799198607
  C        14.0620152568       14.2921903800       12.0801321396
  C        16.5211701655       14.1925129965       13.0241236134
  C        14.6346758387       11.5759714235       14.2297809640
  C        14.4945217236       10.1664567323       14.2686269000
  H        12.0578904438        8.8758450274        3.1914414560
  H        12.1917738413       10.4105147445        2.7729600326
  C        13.2881630370        8.8812471349        1.5713481735
  S        17.8129513611       18.0930216040        3.6175110856
  N        18.0925232134       17.5486965086        2.1331830835
  C        18.8310108332       15.3894370359        1.0811045486
  H        18.9131799587       13.2566885541        0.5310230965
  H        14.3001705387       15.0942097717       11.4353740753
  H        13.9131418735       14.7567938278       13.0791469354
  C        12.8777318961       13.4962766720       11.5447794893
  H        16.7789676215       15.0704125660       12.4003761383
  H        16.0624375746       14.5860767803       13.9161503638
  C        17.7864645344       13.4325592841       13.2938752150
  H        14.4618176695       12.2839454665       15.0113683313
  C        14.2003559238        9.3137692775       15.4506488009
  H        12.6254710321        8.0279675173        1.4311627328
  H        14.2756854588        8.3960355706        1.6393869786
  C        13.1707584794        9.8186402972        0.3216812302
  C        19.0664230626       16.1446680781       -0.1211952552
  H        13.1568103666       12.7266367730       10.8355317150
  H        12.4636423925       12.9152735892       12.4143333292
  C        11.7316012812       14.2955607381       10.9031605184
  H        18.0909198462       12.8531354339       12.4493922749
  H        17.4720572793       12.6881197954       13.9912826927
  C        18.9580469859       14.2466677382       13.8774388558
  C        14.3110767700        7.9010009754       15.5713574548
  C        13.9407998416        9.9749564861       16.7554569973
  H        13.3617198033       10.8235750046        0.7596837460
  H        14.0065804125        9.7168170277       -0.3686224276
  C        11.9124103100        9.9768443692       -0.4189670440
  H        18.6582852294       17.1271664603       -0.1006563719
  C        19.3941216455       15.7249108085       -1.3600671648
  H        12.0741497617       15.0196951887       10.1749950805
  H        11.3188902852       14.8875528346       11.7513966692
  C        10.7117610893       13.2371645345       10.3985257939
  H        19.3925243819       15.0010175074       13.2709861001
  H        18.5741497455       14.6702337640       14.7796410032
  C        20.1854320196       13.3543862632       14.2284627964
  N        14.7700296123        7.0414954114       14.5422438843
  C        14.0205010964        7.1708701817       16.7150106696
  C        13.5867525400        9.2955200040       17.8929181023
  H        13.8096156086       11.0821343750       16.8476428750
  H        11.2420127229        9.2590315380        0.0242654881
  H        11.9453139940        9.7295716934       -1.5022921594
  H        11.3788174953       10.9372715234       -0.1698193471
  S        19.7260153781       14.1476827557       -1.8897974693
  C        19.3616542731       16.7656359475       -2.4402398098
  H        11.1786495173       12.3655500099        9.8988551271
  H        10.1677141996       12.6891572856       11.1248987152
  C         9.8318049641       13.7474812294        9.3062230054
  H        20.5920153760       12.8359947279       13.3658054096
  H        19.7619752011       12.6442777962       14.8969018003
  C        21.1756041230       14.2676582102       15.0385520770
  S        14.6091396580        5.4560625946       15.0835610832
  N        13.9878984766        5.7930346596       16.5204755021
  C        13.6039654056        7.8221841105       17.9386280089
  H        13.2740889378        9.9308602261       18.7126247880
  C        19.9122558732       14.8737708891       -3.5007582277
  N        19.6901461818       16.2198717480       -3.6515679894
  O        19.0602928529       17.9666746451       -2.2488728160
  H         9.1562277784       14.5320871650        9.7750871825
  H        10.4460459081       14.2462808806        8.4951430417
  C         8.8890371153       12.7234281875        8.5912984136
  H        20.6673134725       14.8441243137       15.8441071278
  H        21.8848954823       13.5624390834       15.5191088495
  C        22.0732606887       15.2816686599       14.2205836654
  C        13.2608044996        7.0447627823       19.0268810377
  S        20.4059349012       13.9044663103       -4.9750467389
  C        19.5424619867       17.0179759518       -4.8582939827
  H         9.2759041989       12.3735546473        7.6775722878
  H         8.8863558868       11.7717096538        9.2046616129
  C         7.4075592761       13.1549708760        8.2329284543
  H        21.6429170473       15.4501101319       13.2284085072
  H        23.0192710064       14.8730778692       14.0066190364
  C        22.3258843723       16.6442110802       14.9364583317
  H        13.4294978872        5.9628479282       19.0486304965
  C        12.8103282177        7.4226563231       20.3016484307
  H        19.8148396821       16.4531699752       -5.7113068202
  H        20.0389127283       17.9960537967       -4.7758498357
  C        18.0112873634       17.2329505438       -5.1806317281
  H         7.0124367956       12.4216615948        7.5943059340
  H         7.4005037603       14.1524571571        7.8141921963
  C         6.5622772815       13.1564551139        9.5371260553
  H        22.9080261671       16.4504711692       15.8281986020
  H        22.8118255914       17.2923937769       14.2224399176
  C        21.0393472703       17.4031940583       15.3556007406
  S        12.3462250164        9.0485013829       20.8884423816
  C        12.7904406118        6.3573038806       21.4035810083
  H        17.3234234389       16.4244147493       -4.9414017607
  H        17.9796597098       17.4541857091       -6.2946279996
  H        17.6642555442       18.1106683702       -4.6981762567
  H         6.5399345823       12.1177943199        9.8264867340
  H         6.9225972743       13.8865821835       10.3259246751
  H         5.4642511343       13.3235291898        9.4263765189
  H        21.1125004040       17.8531321319       16.3687470713
  H        20.7976644552       18.1065136650       14.6964045316
  H        20.1547147469       16.7433255669       15.2241981797
  C        11.8905549457        8.2649327024       22.4812786992
  N        12.2383999910        6.9231274955       22.5423725613
  O        13.2474035669        5.2446847099       21.3313962675
  S        11.6375941177        9.1580647656       24.0168802543
  C        12.0166596961        6.0854031895       23.7201532071
  H        11.4735771548        5.1936310098       23.4131637832
  H        11.3111300825        6.5884504852       24.4276680778
  C        13.3193522313        5.7361921792       24.3880687163
  H        13.9390149194        5.0903345590       23.8038160627
  H        13.1886142586        5.1642145171       25.2897432818
  H        13.9121834687        6.6161582170       24.5565643257
