352
 i =    19100, time =    19100.000, E =        25.2602778749
  H        10.6869712637        7.6253481944       32.7706514361
  C        10.8408521496        6.6230912515       32.3465187806
  H        11.7514635682        6.7653278892       31.7289361243
  C         9.7026695419        6.4204322680       31.3264021126
  C        11.1196742547        5.6035699143       33.4526664413
  C         9.9900124310        6.6376988659       29.8152426636
  H         9.3571754638        5.3532283713       31.4671733953
  H         8.9173022790        7.1123352040       31.6789993052
  H        10.7865355272        5.9594352711       34.4173407828
  H        10.6186817901        4.7066133012       33.1020750403
  H        12.1853278991        5.4117018818       33.4711125804
  C        10.2157014865        5.3295383604       29.0539389604
  H        10.8428052052        7.3424163287       29.6124365114
  H         9.1389853201        7.1219360302       29.2960119490
  C        10.8703874300        5.5805465774       27.6810793423
  H        10.8098157166        4.6362487550       29.6842999230
  H         9.2878815868        4.7372872682       29.0456441598
  C         9.9416627311        5.0563202798       26.5372003339
  H        11.8168431039        5.1201557556       27.6531313295
  H        11.0693230383        6.6030406091       27.3475899852
  C         8.7931560499        6.0397056929       26.1121386602
  H        10.6318542558        4.9145690236       25.7174957859
  H         9.4907593460        4.1286161417       26.7186847654
  C         7.6066836217        5.3580918758       25.3949671464
  H         8.4058440642        6.5497371911       26.9759467120
  H         9.1717401244        6.8947994947       25.5516189929
  C         7.0869525004        3.9989589162       26.0131876573
  C         7.9539422668        4.6117101451       24.1335561568
  C         6.4150278030        6.2145892237       25.1517044015
  C         7.2860826159        2.9234077379       25.2222038264
  C         6.5273186205        3.6631359676       27.2294806580
  C         7.8212061346        3.2664807030       24.0454977914
  C         8.4213286731        5.2501851582       22.9695521181
  H         6.6391079710        7.0175261100       24.4009079308
  H         6.1932561615        6.7627335443       26.0904587501
  C         5.1634793580        5.4565340891       24.6634528961
  S         6.6246446145        1.4292384322       25.8571859792
  C         6.1839001618        2.3172115441       27.3117756503
  H         6.4273841629        4.4450098411       27.9609806155
  C         8.2166296561        2.6120830575       22.8687186595
  H         8.4954239663        6.3487623333       22.9760565631
  C         8.8005565236        4.5943863935       21.7981617595
  H         5.3746882656        4.8484521022       23.8003697620
  H         4.8167659335        4.8204380293       25.4356722638
  C         3.9718089013        6.3371475330       24.3909154135
  C         5.7541903259        1.6378243705       28.6076495236
  C         8.6500594056        3.2504010553       21.7049195438
  H         8.3802037584        1.5367227691       22.8416130508
  C         9.1604659822        4.9289389503       20.5330993478
  H         3.3992710020        5.7736674202       23.6297765686
  H         4.1460937044        7.2723026938       23.8968875494
  C         3.0546390018        6.6155584405       25.6412655575
  C         5.8290541168        0.2459564744       28.9513898363
  C         5.3808071770        2.5010534470       29.7580654790
  C         8.9691713131        2.5157809501       20.4713395114
  C         9.2820556865        3.7931664973       19.7646392686
  S         9.2662586055        6.4395368521       19.6715051795
  H         2.4827540914        7.5291330969       25.3586648623
  H         3.7494975287        6.8003491914       26.4872754894
  C         1.9951386616        5.5494573601       26.0674465557
  N         6.1708454934       -0.7561047445       28.0094512337
  C         5.5282027509       -0.2812667084       30.1971226732
  C         5.0435128241        1.9940407291       30.9796090215
  H         5.2719622049        3.5881545786       29.6034685221
  C         7.8858759404        1.6724490819       19.7638572411
  C        10.2998431448        1.8283674849       20.5582676182
  C         9.6852889709        4.1204777997       18.4743979161
  C         9.7574278835        5.4678859014       18.2955381912
  H         1.3009857818        5.4165497733       25.2684638698
  H         2.5573166046        4.5911446594       26.0526860813
  C         1.4136124617        5.8673075573       27.4533552141
  S         6.0410564253       -2.1851129138       28.7513380780
  N         5.7463934072       -1.6735418549       30.3148279560
  C         5.2098668387        0.5346813953       31.3198860783
  H         4.6571197004        2.6936377874       31.7481135676
  H         7.3766594480        1.0190632389       20.5262548695
  H         8.2155678229        1.0414897996       18.9420877234
  C         6.6762983619        2.5162920168       19.2496611063
  H        10.3578317050        1.0759681365       19.7518094837
  H        10.3362796004        1.2206763222       21.4362095090
  C        11.5574807207        2.6460967141       20.6467017380
  H         9.7896810239        3.2056976320       17.7307520191
  C        10.0390004872        6.1515120159       17.0121743298
  H         0.4044247915        5.4805138749       27.4533103937
  H         1.2965790566        7.0032455970       27.3221975102
  C         2.2122128006        5.4079901477       28.6980995985
  C         4.9472829081       -0.1572639179       32.5217692581
  H         7.1445328351        3.2477734987       18.5386611187
  H         6.2304939752        3.0712972363       20.0847878210
  C         5.5449920597        1.6907579617       18.5205034555
  H        11.4767374463        3.4303348365       21.4413517056
  H        11.7748480787        3.1811240968       19.7257985829
  C        12.7075093099        1.7632191561       21.0741642537
  C        10.1702811525        7.6053755564       16.8019893317
  C        10.3442128965        5.3406577571       15.8362988381
  H         2.5341998634        4.3905807003       28.5321618772
  H         3.1894500171        5.8450457556       28.6576647026
  C         1.5755493706        5.5537253299       30.0946479693
  H         4.8987649071       -1.2667968538       32.4958461183
  C         4.7496335943        0.2999990743       33.7805291924
  H         5.5054487292        0.7360761679       18.9717451900
  H         5.7159129388        1.5548089262       17.4438995090
  C         4.1585880645        2.1915659969       18.7860710299
  H        12.5245590249        1.1895661022       21.9644035991
  H        12.7970476791        1.1138048064       20.2200448482
  C        13.9521422308        2.5755077500       21.1365905556
  N         9.9699949640        8.6128757316       17.7762574146
  C        10.4534225050        8.1514899509       15.5590593863
  C        10.5970097863        5.8807349622       14.6054356839
  H        10.4066236681        4.2216822093       15.8884589086
  H         1.1774898841        6.4814409689       30.2560577128
  H         0.8983944830        4.7148103824       30.0905846458
  H         2.2793785255        5.3886461672       30.8601255527
  S         4.8230664664        1.9270008926       34.3264720159
  C         4.6059956018       -0.7029659058       34.8392089066
  H         4.2058663067        2.9178387373       19.5881591725
  H         3.9222445315        2.8457747918       18.0386279408
  C         3.0588478633        1.1502255262       19.0096600769
  H        13.9173344952        3.3259960826       20.3480911880
  H        14.7646619903        1.8875145113       21.0270248380
  C        14.1335118316        3.3365495130       22.4831808349
  S         9.9440582461       10.0242404175       17.0233230720
  N        10.3341687574        9.5695470444       15.5301252013
  C        10.5592081391        7.3352558805       14.4294812755
  H        10.6639106522        5.3108151671       13.7268223094
  C         4.4625085072        1.2528430861       35.8473657019
  N         4.2953915992       -0.0998337156       35.9441967310
  O         4.5605773796       -1.9373058114       34.5888300365
  H         2.1192322318        1.6510725749       19.1809812764
  H         3.3721471844        0.6232788120       19.8981164247
  C         2.8832666551        0.1726371927       17.8490319880
  H        14.7267324811        4.2227960229       22.2421250262
  H        13.0891953754        3.5066024717       22.8049904835
  C        14.8079898814        2.4168576845       23.5549679490
  C        10.8525071614        7.9948200846       13.1971884211
  S         4.0232670304        2.1968696775       37.2579727526
  C         4.2317470795       -0.8345201635       37.2432015722
  H         2.7386257859        0.7877575701       16.9190788789
  H         3.8007649007       -0.4953078375       17.6711753655
  C         1.6396476870       -0.7335261115       18.1618038543
  H        14.6512650604        1.3707653488       23.3357216402
  H        14.3240865975        2.4999775004       24.4997379094
  C        16.2856750241        2.8291133554       23.7207709859
  H        10.4132192762        8.9555459228       13.1244428438
  C        11.4615145765        7.5332029518       12.0666353270
  H         3.4888652497       -0.3882822516       37.9325892119
  H         3.7255124446       -1.7604292084       37.1125467500
  C         5.5708849042       -0.9599593443       37.8757715577
  H         0.7587057432       -0.1554181517       18.0718324255
  H         1.6321383759       -1.0675938913       19.1306395251
  C         1.4301976730       -1.8357623855       17.1011581551
  H        16.3262702369        3.8429416283       24.0485894946
  H        16.8343754345        2.2180464160       24.4352653434
  C        17.0592617058        2.5716524939       22.4428839328
  S        12.0597655395        6.0059359739       11.6753209296
  C        11.6707838354        8.4917704656       10.8961702417
  H         5.6057132445       -1.8452568814       38.5813312229
  H         6.3574505464       -1.1638677760       37.0699276300
  H         5.7783127997       -0.0344764450       38.4228390991
  H         2.2307267743       -1.8491434700       16.3438205593
  H         0.4438157979       -1.7518660286       16.6589449109
  H         1.3566237513       -2.7376521554       17.6468954735
  H        18.0939714474        2.2859719229       22.6352447143
  H        17.0911242939        3.4341778725       21.7246039171
  H        16.6063130537        1.6776816054       22.0491075304
  C        12.7969022314        6.6722002537       10.2215014635
  N        12.2836546811        7.8662406482        9.8673003982
  O        11.3314694909        9.6754053578       10.9585529031
  S        13.6737884541        5.6687309661        9.0644608831
  C        12.7870469862        8.5209849618        8.6644699632
  H        13.8361254044        8.7480538195        8.8430134479
  H        12.7418405740        7.8298814107        7.7737870745
  C        11.8873955302        9.6984970950        8.1539758550
  H        11.8572775479       10.5515799417        8.8185163049
  H        12.1076390896        9.9349232254        7.0794346192
  H        10.8382289611        9.3977123809        8.1749936298
  H        20.9943216937       10.8572845990        3.2690931338
  C        21.5223308146        9.9032168091        3.3050153753
  H        20.7073840167        9.2279868279        3.4209249130
  C        22.5599897381        9.7395686491        4.4084703803
  C        22.2914664419        9.9173803830        2.0025544071
  C        21.9256217768       10.2602493368        5.7083301499
  H        22.9600940101        8.7137200246        4.5405619753
  H        23.4377715958       10.3546399107        4.0503477608
  H        22.8749477826        9.0861868911        1.9814740984
  H        22.9476544514       10.7359885606        2.0187892884
  H        21.6397250211       10.0348546069        1.1535341146
  C        21.0648406397        9.1515095521        6.3496374586
  H        22.7271789869       10.5917771591        6.3782132005
  H        21.2819905276       11.1132813042        5.4528935217
  C        20.5030044322        9.4614948597        7.7713082151
  H        21.7573581370        8.2962954985        6.4138205552
  H        20.2285997975        8.9018064676        5.7097537886
  C        19.2684425593       10.3710037287        7.8223842519
  H        21.3078728939        9.9011153646        8.3098721010
  H        20.3748804015        8.5170510123        8.2442644581
  C        18.0169870006        9.7087489079        7.2185348740
  H        19.0745727038       10.6683479137        8.9019254552
  H        19.4061425921       11.3406055867        7.3688904113
  C        16.8577844789       10.6159646072        6.8537895932
  H        17.6815982566        8.9031461275        7.8857286248
  H        18.2811333359        9.2251264648        6.2831930096
  C        17.2146405523       11.8715527230        6.0920608906
  C        16.4103931502       11.3989677851        8.0672450639
  C        15.6328046400        9.9800539206        6.1549578865
  C        16.9255465166       13.0320077894        6.8548995259
  C        17.7608306698       12.1764597737        4.8499605737
  C        16.4607422907       12.7345100942        8.1464272640
  C        15.9244868415       10.7305397983        9.2025512472
  H        16.0282679966        9.4013730175        5.2711370497
  H        15.1075143241        9.3416408820        6.8378216366
  C        14.5961463316       11.0286455461        5.6430984473
  S        17.2364183352       14.4645663162        5.9808420234
  C        17.7908886935       13.5612501218        4.6503205861
  H        17.8806559364       11.3554757121        4.1762314965
  C        15.8368134264       13.3661921853        9.1900542224
  H        15.9440967434        9.5839487139        9.2839912976
  C        15.4368876940       11.3518693317       10.2866406125
  H        14.9780199604       11.8114837559        5.0284335625
  H        14.1677101197       11.3454936564        6.6065076330
  C        13.6558444539       10.4694685263        4.6217540487
  C        18.1288008543       14.2436579055        3.3494301489
  C        15.3369119464       12.6659884601       10.3025261507
  H        15.7834044525       14.4431636472        9.1965232080
  C        14.9492192437       11.0545299249       11.5280859600
  H        12.7141712082       10.9169368492        4.6783731025
  H        13.4435001429        9.4801270930        5.0248213754
  C        14.0831076867       10.3026313577        3.1519281824
  C        18.0375501137       15.6681085699        3.2070097506
  C        18.6160518505       13.4468168544        2.1554115822
  C        14.7211199854       13.4432241908       11.4921871674
  C        14.6114282152       12.1738462664       12.2468111663
  S        14.6385477576        9.6358339955       12.4026225675
  H        15.2051065467       10.1617139281        3.0450021598
  H        13.7990809140       11.2012323590        2.6417255119
  C        13.3459626662        9.1460784419        2.5319978692
  N        17.7269676235       16.6606958389        4.1652609770
  C        18.3196323816       16.2812159305        2.0018147282
  C        18.8001560503       14.0745449716        0.9358087240
  H        18.7745957581       12.3332523616        2.2158209020
  C        13.3655318707       14.0506377475       11.2598173404
  C        15.7983473897       14.3994363192       12.1478554834
  C        14.2484091390       11.9470721351       13.5453888487
  C        14.2457497371       10.5909563455       13.8609882681
  H        13.9888568029        8.3431828721        2.1735908656
  H        12.5864084061        8.6519312999        3.1332712640
  C        12.6707065111        9.5504628227        1.1325010452
  S        18.0059832966       18.1516272459        3.4506340840
  N        18.3869904662       17.6758958383        1.9796424526
  C        18.6522695470       15.5371632140        0.8169484679
  H        18.9551751938       13.4842722020        0.0668029003
  H        13.3399534157       14.7047251548       10.3827334460
  H        12.9392415832       14.7348861282       11.9881384851
  C        12.2764931682       12.9697495571       11.0814297331
  H        16.0311535330       15.1868039089       11.4627491473
  H        15.3054694906       14.7892948123       13.0506610793
  C        17.1407050295       13.7665681270       12.4353781143
  H        13.8106652282       12.7170014108       14.1917957358
  C        13.9342510281        9.9162059549       15.1518154618
  H        12.0558915515       10.4287152121        1.1622131853
  H        11.9512762451        8.7453503281        0.9451428548
  C        13.6472212372        9.7703047234       -0.0194552674
  C        18.8045198317       16.2460729455       -0.4058931400
  H        12.4343676229       12.3018275894       10.2591500398
  H        12.2168113767       12.4983218470       12.0193426728
  C        10.8969417808       13.6374823875       10.8442162441
  H        17.5152955501       13.1680277273       11.6918752500
  H        17.0969691055       13.0870047591       13.2887601801
  C        18.0656372844       14.9723316732       12.7771920471
  C        13.9384028234        8.4891979372       15.3427651416
  C        13.7196790841       10.6717113601       16.3810450021
  H        14.4947705012       10.4006235886        0.2406184794
  H        14.1062718068        8.8081098827       -0.2878675945
  C        12.8929955778       10.2533783026       -1.2447991406
  H        18.6312038241       17.2833094825       -0.3867128382
  C        19.0500856263       15.9109798668       -1.6967815444
  H        11.0112017012       14.7333564370       10.8614295837
  H        10.1780318608       13.5930082190       11.6133532199
  C        10.2453920248       13.1834081795        9.5730572699
  H        18.2784645116       15.4273801818       11.8291470970
  H        17.3917047558       15.6776777568       13.2105459404
  C        19.1956756776       14.4962277405       13.7030631888
  N        14.0248216815        7.5405032814       14.2954790227
  C        13.6043029281        7.9119872739       16.5165286120
  C        13.4742542355       10.0861697114       17.5900261018
  H        13.7313178120       11.7196698394       16.4079111593
  H        13.4689293715       10.5216058835       -2.1683938435
  H        12.2890136496       11.2115211323       -1.0229261080
  H        12.0963577567        9.5901834342       -1.4899343700
  S        19.4200713423       14.2605458545       -2.1454910219
  C        19.0044810425       16.9326359606       -2.7557201580
  H        11.0789507441       13.1638133321        8.8758457239
  H         9.8918205760       12.1883088839        9.8176741879
  C         9.1827619960       14.1592436706        9.1049217031
  H        19.9359811727       13.8774343034       13.2421303198
  H        18.8174046334       14.0081443104       14.5973316465
  C        19.9757936840       15.7148986187       14.1834942432
  S        13.8381705538        6.0295732668       14.8618819266
  N        13.4850139073        6.4996514125       16.3678127457
  C        13.3451724545        8.5962850274       17.7200038670
  H        13.3059208832       10.6882742965       18.4984829290
  C        19.5530181187       14.9272156112       -3.8023986504
  N        19.3523669131       16.2974051360       -3.8752087748
  O        18.7452876972       18.0848554560       -2.6052114379
  H         8.8253292474       14.8175788867        9.9121031333
  H         9.6289476492       14.8552652583        8.3722278769
  C         8.0310764001       13.3959515850        8.4573635334
  H        19.3494076726       16.4967508528       14.4396105024
  H        20.4522533083       15.4626881229       15.1690657285
  C        21.0192843346       16.2461298516       13.1872926430
  C        12.8497320667        7.8270302023       18.9138016750
  S        19.9997595266       13.9865024896       -5.2406529510
  C        19.3825220187       17.0712089956       -5.1904101317
  H         8.3966444670       13.1877635514        7.4541379867
  H         7.9774347392       12.4482934614        9.0450192648
  C         6.6141298232       14.0668013346        8.3887277927
  H        20.6282406934       16.7575892650       12.2995423824
  H        21.6033724140       15.3876452134       12.8715653863
  C        22.0258052898       17.2288434228       13.8525888526
  H        13.1844217856        6.7586551271       18.8173740251
  C        12.3542917304        8.2881892990       20.1081514238
  H        20.2636036113       16.6920760085       -5.7708406050
  H        19.5562294586       18.1122211789       -4.9438312853
  C        17.9923649035       16.9281882342       -5.8908383528
  H         6.0236900872       13.5363597991        7.7027759725
  H         6.7973137384       15.0817430184        7.9660160768
  C         5.8676641869       14.1719150165        9.7269115341
  H        22.7126298137       16.6359661295       14.4560149246
  H        22.5316452278       17.8507589849       13.1521736211
  C        21.3562103315       18.2347872946       14.7548320783
  S        11.7785405548        9.8198044196       20.4909785182
  C        12.2430744079        7.2150972031       21.1494146077
  H        17.2676361581       16.4176641422       -5.2961092153
  H        18.0832393490       16.2147295591       -6.6809762549
  H        17.5341335719       17.8494079935       -6.3229774692
  H         5.7787295680       13.2915607161       10.3107934352
  H         6.5212467536       14.8160165856       10.3786916954
  H         4.9125243628       14.6596775846        9.6227413956
  H        20.6122640043       18.7932356181       14.3127492762
  H        20.9918290859       17.8112158882       15.6233533432
  H        22.0224390155       19.0503226139       15.1460458701
  C        11.5218117894        9.2047780508       22.1530842635
  N        11.6899891473        7.8269942900       22.2340937035
  O        12.5169953342        5.9808091074       21.0717475566
  S        10.7574673383       10.0978807873       23.5236273990
  C        11.5121128749        6.9773239282       23.4148204280
  H        11.2408171100        5.9656002310       23.1042726051
  H        10.6278016779        7.3835107251       23.8890393271
  C        12.6316336235        7.0152429304       24.4082177361
  H        13.4976682511        6.6097223778       23.8863594883
  H        12.5401120988        6.3704537857       25.2523829466
  H        12.6678615912        8.0043691731       24.8821525264
