352
 i =    27800, time =    27800.000, E =        24.5540409339
  H        11.3511021581        7.3240845908       32.1867850833
  C        11.2947793932        6.2631057627       32.1518654949
  H        12.3891330570        5.9169565740       31.9193334940
  C        10.4106437279        5.8165754226       31.0329232944
  C        10.8554988922        5.8386043124       33.4864209801
  C        11.0799619801        5.8544560105       29.6618962550
  H        10.1891180507        4.7707750851       31.2796534494
  H         9.4246520118        6.2594470874       31.0626637348
  H        11.0334429613        4.7061851627       33.6338351821
  H        11.4823154237        6.1927750591       34.2456373520
  H         9.7561728486        6.0650320187       33.6709476972
  C        10.3113237355        4.9825279179       28.7605571497
  H        12.1477732188        5.6997264718       29.6378676917
  H        10.9335173748        6.8292645820       29.2265913168
  C        10.8095168744        5.1169141115       27.2738461607
  H        10.2336365706        3.9950847659       29.1577892785
  H         9.2681587383        5.1596238025       28.9214220760
  C         9.8335706952        4.6164700440       26.1923495276
  H        11.7903789763        4.6284115043       27.1352183664
  H        11.0632350719        6.1363992250       27.1019948485
  C         8.6234159204        5.5169652315       25.8316617636
  H        10.4517353596        4.4347627878       25.2962153962
  H         9.4744515626        3.6352558694       26.5337158490
  C         7.4696196292        4.8689826649       25.1474333874
  H         8.3236830290        5.9019767213       26.7915162415
  H         8.9989184964        6.3729966986       25.2694389487
  C         7.0813364100        3.5721088782       25.7902473684
  C         7.8706100379        4.1953587992       23.8640200536
  C         6.2336104940        5.8600235429       25.0417937166
  C         7.3146399119        2.4865531096       24.9687166813
  C         6.6946383811        3.1943164577       27.0629134657
  C         7.7565970008        2.8718976419       23.7545760167
  C         8.4027565850        4.9348825871       22.8305131843
  H         6.3980972023        6.5592743346       24.1765001951
  H         6.1662920795        6.5050348522       25.9493889195
  C         4.8640777634        5.1625792238       24.6829825899
  S         7.0449032286        0.9836440326       25.7565523503
  C         6.4285905101        1.8476319265       27.1878266054
  H         6.3421373893        3.9627777466       27.7493972064
  C         8.2430898265        2.2501800364       22.5872220900
  H         8.4825566754        5.9744363823       23.0034691696
  C         8.7270858527        4.3112939455       21.6418733313
  H         5.1271830781        4.5940145824       23.7410188333
  H         4.6552339072        4.4567222603       25.4323130418
  C         3.6711878916        6.1888535296       24.5043036660
  C         5.8248132050        1.1752869666       28.3768638439
  C         8.7293967571        2.9801732835       21.4286239745
  H         8.2116451837        1.1842900194       22.5251399113
  C         9.1431588525        4.8061922755       20.3831230881
  H         2.8918305025        5.9615001989       23.8160308947
  H         4.0527704210        7.0868296981       24.1060652787
  C         2.9720759909        6.4404270211       25.8371891292
  C         5.8043530722       -0.1698121540       28.6703888455
  C         5.3878330865        2.0519433408       29.5214053635
  C         9.0527485460        2.3893198872       20.1017150614
  C         9.3336035142        3.7473768907       19.4869047185
  S         9.4438359724        6.3829990666       19.6695967648
  H         2.2781887881        7.1835615035       25.5645412648
  H         3.7110317289        6.8046530031       26.5665301055
  C         2.1117764470        5.2408508336       26.2472524171
  N         6.2934994403       -1.1336961857       27.7987760774
  C         5.4653744402       -0.6320502320       29.9215772219
  C         4.9562436005        1.5560677458       30.7502530896
  H         5.5244146523        3.1478512786       29.4395085709
  C         7.8742614622        1.7236948948       19.4629241442
  C        10.2980863614        1.4601013909       20.2858510089
  C         9.5975728700        4.2210805805       18.2331354001
  C         9.6788694104        5.5824583371       18.1689487912
  H         1.2449557455        4.9796940943       25.5462722310
  H         2.7039102570        4.4031496937       26.2516238612
  C         1.5058137160        5.5248130233       27.5681590906
  S         6.1303576735       -2.5556877592       28.5481990224
  N         5.4974332075       -2.0557711155       29.9710849549
  C         5.1417394324        0.1332364948       31.0329520541
  H         4.6549693149        2.2169487977       31.5769132858
  H         7.6392046984        0.8484257809       20.1446396518
  H         8.3256012523        1.3178828700       18.5989475585
  C         6.7331676370        2.6940235788       19.0649674113
  H        10.5768043643        1.0881311609       19.2807682479
  H         9.9837767500        0.6421446934       20.9962559793
  C        11.4739033249        2.0985411819       21.0611948947
  H         9.6041905696        3.5395542905       17.4148314687
  C         9.9096318982        6.3978177030       16.9103709603
  H         0.7739820791        4.7928820526       27.9286423677
  H         0.8998656870        6.4251988139       27.5021287003
  C         2.5606870099        5.6866079941       28.6984303112
  C         4.8443784068       -0.4689373174       32.3087225972
  H         7.1013363184        3.2405615213       18.2267921587
  H         6.6445137333        3.4010046418       19.9723753718
  C         5.4199247095        1.9978135073       18.6874193035
  H        11.2338068694        2.1803107830       22.1446752368
  H        11.5342947648        3.1823135129       20.7698441725
  C        12.8629792255        1.5015379089       20.7877523962
  C         9.9577175303        7.8295228799       16.8440121061
  C        10.2260181185        5.6097863322       15.6518949115
  H         3.2994471520        4.9627830271       28.6600413245
  H         3.1866080535        6.5765673087       28.6117799464
  C         1.9681697700        5.7106374061       30.0700236992
  H         4.8681474619       -1.4982357793       32.2234852036
  C         4.5537507253       -0.0193761613       33.5559535113
  H         4.9925641686        1.4592737172       19.4914558342
  H         5.5985687884        1.2788203725       17.8778784810
  C         4.3611144791        2.8090889866       18.0396116472
  H        13.1662445073        0.8007804680       21.5875237455
  H        12.7543771650        0.9911841579       19.8257353027
  C        13.9912540380        2.6224253590       20.7655942386
  N         9.7610560268        8.8072397998       17.8508589068
  C        10.2968051312        8.3867383821       15.6085676791
  C        10.4815121219        6.2815548403       14.4052826985
  H        10.2468450717        4.5432959983       15.7311228553
  H         2.6423751683        5.5559901763       30.8832615670
  H         1.5153801293        6.6342679498       30.3342319952
  H         1.1133313888        5.0550359676       30.0285801202
  S         4.3330642220        1.5874520374       34.0288608005
  C         4.4233288693       -1.0390591347       34.6885566026
  H         4.3610494317        3.7328209429       18.6342831454
  H         4.5896979457        2.9317366929       16.9658069914
  C         3.0562126718        2.1297443763       18.3182050938
  H        13.6671754831        3.4800251236       20.1281098457
  H        14.8825353297        2.2463709923       20.3562866514
  C        14.2711629972        3.0716165325       22.1779276078
  S         9.9755653776       10.2813512904       17.1626071191
  N        10.5009458304        9.7557218910       15.7133745092
  C        10.6472924617        7.7282682290       14.4079836929
  H        10.7267686253        5.7818583690       13.5260520247
  C         4.2205188540        0.9738439247       35.6946961709
  N         4.0492043197       -0.3684757477       35.7612723884
  O         4.4034476832       -2.2552465234       34.4865365834
  H         2.3855664206        2.9542739961       18.2332363140
  H         2.9567859587        1.7851001254       19.3584172554
  C         2.7082502117        1.0514129252       17.3673408127
  H        14.7512574401        4.0647870556       22.1684953903
  H        13.3559983170        3.2335879900       22.6701430690
  C        15.1001517117        1.9700058123       22.8651532385
  C        10.9415530393        8.5027780773       13.2471246565
  S         3.7829543728        2.0139166359       37.0367148271
  C         3.6922604368       -1.0192336449       36.9841388289
  H         1.7960942783        1.1672287517       16.8159438877
  H         3.3490205641        1.0559053571       16.4884886148
  C         2.8586364424       -0.3700089026       17.9473761946
  H        15.2310417158        1.1736319182       22.1587696329
  H        14.5629998290        1.4726109134       23.7029522743
  C        16.4845411291        2.4864732874       23.3917699190
  H        10.6333230048        9.5409324228       13.3032090252
  C        11.4864037219        8.1418948924       12.0440622646
  H         2.7991936271       -0.5432879879       37.4891786824
  H         3.4138432499       -2.0219295067       36.7982055270
  C         4.9318030180       -1.0331468993       37.8973894563
  H         2.5183532028       -0.3700513875       18.9412841407
  H         3.9367711885       -0.6172787004       17.9742290597
  C         2.0215549296       -1.5167783475       17.3793234749
  H        16.3979616560        3.4364047209       24.0073898153
  H        16.6604763801        1.6836888075       24.0996894152
  C        17.6207831733        2.4538509719       22.2797287006
  S        12.0662688775        6.6185191756       11.5623681239
  C        11.5519327386        9.2225460716       11.0220104169
  H         5.7764847357       -1.5252209937       37.3790252604
  H         5.2305780140        0.0096554108       38.0816477312
  H         4.6092369552       -1.5135014793       38.8245271954
  H         2.2904989566       -2.4470202505       17.7620385680
  H         1.9740815972       -1.4995123167       16.2924371612
  H         1.0567622407       -1.2772371692       17.8396509739
  H        17.9235812747        3.4864422989       22.1086558461
  H        17.3150467234        2.0688231057       21.2879902383
  H        18.4365038710        1.8817665180       22.7422914846
  C        12.3899703631        7.3906582363        9.9869131814
  N        12.2310662032        8.7304721935        9.9473662553
  O        11.2125551844       10.3929667727       11.1683770053
  S        13.3140483099        6.6832883883        8.6045306633
  C        12.5072697931        9.5956588624        8.8185769544
  H        12.6954111503       10.6217053778        9.0915917963
  H        13.3465180141        9.2582967397        8.2381898724
  C        11.2439056869        9.6862029688        7.9542402622
  H        10.3684638503       10.0084263439        8.4528922971
  H        11.4095423085       10.2795132482        7.0500023393
  H        10.9492595620        8.7400864064        7.5198747114
  H        21.1572223659       11.3840965106        3.5480247833
  C        21.8239674028       10.5038518876        3.5674324375
  H        21.3226272728        9.5502376343        3.8884702849
  C        22.7971347944       10.6981609439        4.7306886188
  C        22.4714462232       10.2661813085        2.3205756707
  C        21.9978306859       10.9474220203        5.9846758289
  H        23.4912244502        9.8538468797        4.8547909172
  H        23.3701047338       11.5550163943        4.6206999672
  H        23.0844479470       11.0840770700        2.1300985749
  H        21.7908975867       10.0974438347        1.5158135328
  H        23.2037456157        9.4459321490        2.3535514057
  C        21.1283477885        9.7728656763        6.5658182758
  H        22.7412475769       11.2821076693        6.7008646141
  H        21.3212710774       11.7940265513        5.8665540350
  C        20.3155822425       10.0717250881        7.8581753596
  H        21.7338053420        8.9125825481        6.8002151028
  H        20.3626727062        9.4893742385        5.8130546985
  C        19.1261798003       11.0375533696        7.5927562162
  H        21.0017647055       10.6079877439        8.5497314464
  H        19.9334550543        9.1411428480        8.3412347292
  C        17.8205502462       10.3671314356        7.1045517065
  H        18.8357970812       11.4859311138        8.5414400113
  H        19.4650306299       11.8256102122        6.9115769507
  C        16.6654496388       11.2600192897        6.9612752044
  H        17.6271699826        9.5131508174        7.8635243221
  H        17.8964907273        9.9248694013        6.1172707668
  C        16.9530204476       12.6474625629        6.3235974365
  C        16.1904827096       11.9178763432        8.1719356764
  C        15.6250880669       10.5186819091        6.1855231709
  C        16.5710030793       13.7443005954        7.1102194941
  C        17.4981209942       13.0818079954        5.1148142457
  C        16.1278117809       13.2637239330        8.3425965183
  C        15.7104106895       11.1945019718        9.2564240467
  H        16.0925425677       10.3609620044        5.1956981845
  H        15.3953553168        9.5799257579        6.5967337574
  C        14.2938052858       11.2652917996        5.8876566021
  S        16.7493149199       15.2755103595        6.3152250047
  C        17.4533309813       14.4472675330        4.9402621603
  H        17.8725194193       12.2691063769        4.5186385191
  C        15.6616715640       13.8109000693        9.4395686818
  H        15.7879719644       10.1621838808        9.1632796998
  C        15.3283878242       11.7421440243       10.4432176195
  H        14.5281226016       12.3118234040        5.5631312351
  H        13.8325953181       11.5081324019        6.8568082597
  C        13.4371509480       10.5503139500        4.9044587890
  C        17.8902175523       15.0708257385        3.6596364682
  C        15.2104072178       13.0965228401       10.5415375742
  H        15.6159527039       14.8746276132        9.5245082535
  C        14.8354786334       11.3220154721       11.6431753248
  H        12.4639582771       10.9867474540        5.0879485439
  H        13.4534034094        9.4096047276        5.0168364183
  C        13.8239959459       10.8807613418        3.4283802152
  C        17.9551848103       16.4454216650        3.3476542689
  C        18.3724260354       14.2705485080        2.4677071880
  C        14.8358349556       13.7682678360       11.7915544007
  C        14.7434408083       12.3609912671       12.5498222640
  S        14.6036751743        9.7803260447       12.3758409420
  H        14.7698263554       10.4145511398        3.2203847251
  H        13.8057575595       11.9839012275        3.4453909340
  C        12.7630939879       10.4423548197        2.4490258263
  N        17.7340649219       17.4274021491        4.2912882833
  C        18.3080554574       16.9454335762        2.0949728204
  C        18.5827386837       14.7792123557        1.1693215993
  H        18.7031862537       13.2268949004        2.6608500148
  C        13.4562135974       14.4608630980       11.6700465506
  C        15.8577074730       14.7152045767       12.6055123299
  C        14.3115987423       11.9034543914       13.7945499241
  C        14.3364583811       10.5383728390       13.8922230856
  H        12.1921196466        9.6740352389        2.9267084244
  H        12.0742191040       11.2559737939        2.4055550737
  C        13.2066718455       10.1255785378        1.0691536961
  S        17.7214509485       18.8995717360        3.5503479883
  N        18.1945883332       18.3451625140        2.1099232593
  C        18.4950959659       16.1693892639        0.9210365778
  H        18.9514589313       14.0722982950        0.4598323043
  H        13.4690967074       15.2639216995       10.9132481163
  H        13.1871665065       14.7599138130       12.6770845808
  C        12.2499051259       13.5270099340       11.3120432826
  H        16.1378316996       15.6022635049       12.0425977050
  H        15.4388748386       15.0659683196       13.5761670069
  C        17.1892997011       13.9810654511       12.9075654374
  H        14.1218411606       12.6812118306       14.5205974017
  C        14.0239079323        9.7798155786       15.1503712918
  H        14.1234436093        9.5021104090        1.0508410439
  H        13.3916879644       11.0749013098        0.5951025083
  C        12.1009175983        9.3489115356        0.3632881158
  C        18.7583415175       16.8461555646       -0.3485912371
  H        12.3380849430       12.7943977578       10.4622304402
  H        12.1040143312       13.0283222010       12.2592717813
  C        11.0194731443       14.3796138932       10.9665711126
  H        17.6348472298       13.4889754759       12.0692224722
  H        16.8737700374       13.2354934192       13.5584921958
  C        18.1942357728       14.9558208876       13.5231199035
  C        13.9693483320        8.4123803680       15.2492196531
  C        13.7545717696       10.5614401358       16.3579038868
  H        12.5184627398        8.4100014522       -0.0115818899
  H        11.3615151293        8.9626237573        1.0846041577
  C        11.6397324757       10.1067649119       -0.8588771741
  H        18.6246091387       17.9191580518       -0.2494490737
  C        19.1185345463       16.3597247042       -1.5888247778
  H        11.2383817811       14.8022014498       10.0313192919
  H        10.8105706366       15.2112382695       11.7035582670
  C         9.8580795041       13.3964975996       10.7403998276
  H        18.7251592713       15.5330115769       12.7535886939
  H        17.6723045973       15.6972507965       14.1526544932
  C        19.2922305975       14.2480927217       14.3062357240
  N        14.3128763967        7.4788966703       14.2791430995
  C        13.6256985725        7.7689197773       16.3941173572
  C        13.2187660366        9.8697273549       17.4812925343
  H        13.8406223159       11.6425489054       16.4099286800
  H        11.7324420106       11.2015145515       -0.7473012571
  H        10.5159107373       10.1137297443       -0.8957757997
  H        12.0670606989        9.7507124322       -1.7565156894
  S        19.4611803800       14.7181206641       -1.9941710223
  C        19.2254008791       17.3682382219       -2.6818138328
  H        10.0602524130       12.6596070765        9.9244574501
  H         9.5339954517       12.7021900661       11.5808532217
  C         8.4966407518       14.0937730799       10.4521683402
  H        19.3792877791       13.2953960090       13.9467399200
  H        18.8826747761       14.1715065929       15.3142779184
  C        20.6569506864       14.9771907402       14.4703351858
  S        14.2416197862        5.9886797393       14.8802193080
  N        13.5765140443        6.3655903898       16.3136080324
  C        13.2113118182        8.4139359286       17.5610896591
  H        12.9404909884       10.4724865782       18.3317803785
  C        19.7488471337       15.3716302107       -3.6224503340
  N        19.5643102329       16.7065535668       -3.7993751827
  O        18.8638281338       18.5594413001       -2.5576858709
  H         7.9813261057       14.3201173383       11.3676859963
  H         8.6545784172       15.0818041674       10.0482327566
  C         7.6940249506       13.2152328350        9.4566795692
  H        21.2391452612       14.3756758965       15.2069995931
  H        21.2657642119       14.8869659332       13.5778677855
  C        20.5100420886       16.4022275601       15.0537502905
  C        13.1065556117        7.7612356610       18.7624338349
  S        20.2380654660       14.4388339260       -5.0043595303
  C        19.5459591590       17.4495199980       -5.0849568138
  H         8.3816388495       12.8618796987        8.6489594753
  H         7.2424034818       12.3364636816        9.9115689907
  C         6.5904205130       14.0710286900        8.8738988812
  H        20.8824759995       16.4294373031       16.0753616813
  H        19.5231428046       16.6775589552       15.2861726560
  C        21.2974250546       17.4526529597       14.2493321900
  H        13.4957697614        6.7681860509       18.7560818588
  C        12.5740164403        8.0396608683       20.0099470188
  H        20.2288518385       17.0238846879       -5.8232462424
  H        19.8938531656       18.4855749695       -4.8669223518
  C        18.0922333669       17.3561385228       -5.6297078798
  H         6.3234883921       13.5461337141        7.9921455483
  H         6.9930614662       15.0306752078        8.5327869180
  C         5.3842240293       14.1811649279        9.8722795497
  H        21.2319968669       17.2708324477       13.1717555298
  H        20.9004886543       18.4270730308       14.4949908558
  C        22.7114757031       17.4170522387       14.7266491313
  S        11.8790929020        9.5409546433       20.5256030536
  C        12.6671313141        6.9349056359       21.0039570997
  H        18.1497811902       16.3841783480       -6.0664971925
  H        18.1733336483       18.1359331896       -6.4083773507
  H        17.1546128037       17.2976642928       -5.0028202101
  H         5.6814406748       14.7400199928       10.7673713091
  H         4.5940452895       14.7948424313        9.4448617406
  H         4.9161583376       13.2311390013       10.1752059100
  H        23.2504777147       16.6014787435       14.1020079422
  H        23.1527169326       18.3850996254       14.4833995548
  H        22.8751344263       17.3181522248       15.7722228466
  C        11.5942392669        8.6566296365       22.0564700913
  N        12.0475993282        7.3849004613       22.1050039851
  O        13.1407580505        5.7778697548       20.8210833401
  S        10.8512631080        9.3600885493       23.4776005279
  C        11.9668339548        6.5090203037       23.2479450067
  H        11.8377689743        5.4768244098       22.9984950521
  H        11.0748112642        6.6720651879       23.8948696800
  C        13.1713176133        6.6691733736       24.1606017702
  H        13.3138335887        7.7103554904       24.4570088705
  H        13.9496977493        6.2661154723       23.5160752094
  H        13.0170012103        6.0212831864       25.0205132413
