352
 i =    32900, time =    32900.000, E =        24.9750056476
  H        12.5442367371        6.7127931339       32.0911456653
  C        11.5361673498        6.3937802911       32.0632141538
  H        11.5386655621        5.3120136364       32.0434600617
  C        10.8916199130        7.0538455258       30.8564733607
  C        10.7610763026        6.6065230583       33.3833246426
  C        11.2776052796        6.4963896395       29.5389397680
  H         9.7774316389        6.8190743944       30.9800031018
  H        11.0884097869        8.0701471233       30.8854761817
  H         9.8587710783        5.9644226260       33.4697356701
  H        11.4182204204        6.3634395207       34.1680308170
  H        10.6177332439        7.6791392689       33.6265021610
  C        10.0636992431        6.1949774147       28.5581713764
  H        11.7813030524        5.5418721281       29.7276878937
  H        11.9538758512        7.2721780134       29.0983883511
  C        10.6271884299        6.1514885743       27.1076676388
  H         9.7107091997        5.2032254185       28.7671263455
  H         9.1957661855        6.9168075106       28.5206613893
  C         9.6002687569        5.4693333145       26.2417193049
  H        11.6056196540        5.5742061960       27.1367992631
  H        10.8042023249        7.1948208660       26.9146888162
  C         8.5611518545        6.4823393002       25.7218097718
  H        10.1070156482        5.1420198206       25.3599032015
  H         9.1517896621        4.6735613341       26.7920865452
  C         7.3585623028        5.6922996810       25.1208805394
  H         8.1048611886        7.0359461776       26.6154355379
  H         8.8407080440        7.2220059009       24.9708274577
  C         6.9337744656        4.3505130079       25.9115045398
  C         7.8277420254        4.9100279910       24.0067167805
  C         6.1375723161        6.5815940406       24.8318997119
  C         7.1925069364        3.2650980887       25.1403962446
  C         6.2190526058        4.0329378904       27.0906212660
  C         7.9072991971        3.5723042769       23.9874585900
  C         8.3807420252        5.5233602380       22.8520280302
  H         6.3489533137        7.3882215104       24.1791286542
  H         5.7916972227        6.9627321717       25.7964234488
  C         5.0042849135        5.7520558640       24.3719501063
  S         6.6449668789        1.8161976346       25.7980279626
  C         6.0823719305        2.6585005726       27.2064886583
  H         5.8510088805        4.8235742842       27.7125173908
  C         8.3609219108        2.8521986644       22.8521796990
  H         8.4073057832        6.6503415935       22.7534888892
  C         8.8195769425        4.8513477303       21.7401591554
  H         5.3099138899        5.3961646910       23.3934251223
  H         4.7729609055        4.8917117276       24.9778051406
  C         3.7048963292        6.4728153555       24.0934048695
  C         5.7607889606        1.9132269189       28.5189433847
  C         8.8477484478        3.5039382227       21.6899882017
  H         8.2788607344        1.7950381620       22.7865306197
  C         9.2974719458        5.2055829244       20.5174708286
  H         3.1908136972        5.7249365849       23.5046159229
  H         3.9151735491        7.4348690579       23.5299340389
  C         2.7770324042        6.7553537039       25.2948606260
  C         5.7851662146        0.5557310830       28.7790357730
  C         5.3490964298        2.7115582439       29.7445811731
  C         9.2781877067        2.7561978319       20.5204612346
  C         9.7033997020        4.0847541207       19.8025150174
  S         9.6238512565        6.7295441715       19.7876919256
  H         1.8337997196        7.2043249346       24.9209145834
  H         3.3764106153        7.3908186300       25.9232139818
  C         2.2491121538        5.5763702084       26.0956284057
  N         6.1943560175       -0.3677916926       27.8203548220
  C         5.5663238574       -0.0263486498       30.0081152841
  C         4.9535941489        2.0404911061       30.8902398387
  H         5.3921526489        3.7894415867       29.6761793975
  C         8.0829824173        2.0758522784       19.7910866296
  C        10.4985490382        1.8322258956       20.6143771229
  C        10.0916701702        4.4939944658       18.5323152493
  C        10.0643658962        5.8458059093       18.3838501101
  H         1.7312538975        4.9082553766       25.3940875176
  H         3.0444477418        4.9923405420       26.5574478349
  C         1.2140403665        5.9222723327       27.1321376258
  S         6.1748340119       -1.8656327516       28.4835786791
  N         5.8153373178       -1.4049445046       30.0118972244
  C         5.2011321581        0.5908282825       31.2154737751
  H         4.5317526121        2.6614228910       31.6824881546
  H         7.5426016888        1.6514029046       20.6383069667
  H         8.3343616571        1.2401473527       19.1360309638
  C         7.0229561784        3.0735244098       19.2330738225
  H        10.5940175762        1.4078647036       19.6493430824
  H        10.2879067806        0.9861402219       21.2432366295
  C        11.8023868584        2.4822702048       21.2087210490
  H        10.3441142041        3.7601872430       17.8316223756
  C        10.4596753524        6.5494846959       17.1204696357
  H         0.5425633048        5.0525458945       27.2211536642
  H         0.5275449736        6.8083149222       26.8921947707
  C         1.6224472238        5.9337092352       28.6307966426
  C         4.9846866491       -0.1031192849       32.4262237528
  H         7.5033603427        3.6404111650       18.3542107618
  H         6.7645252528        3.9127205833       19.8866339678
  C         5.6887566460        2.4632192700       18.7321505820
  H        11.6534633752        2.9016739249       22.2528804813
  H        12.1193808687        3.3041613684       20.4966799880
  C        12.9888264673        1.4994657084       21.3384482783
  C        10.4983801491        7.9612719860       16.8635073234
  C        10.7408250374        5.6646624736       15.9143478094
  H         1.3984486849        6.9782302303       28.9043758233
  H         0.9569427159        5.3447861449       29.2149035699
  C         3.0241110317        5.4847245989       29.0108351495
  H         5.0195902397       -1.1603159860       32.3507150438
  C         4.5931063281        0.3233982261       33.6659214160
  H         5.2912744602        2.0394888902       19.6676122565
  H         5.9958034387        1.6893095352       17.9846284772
  C         4.7881803721        3.4926697100       18.1223056176
  H        13.0149876264        1.0572701293       22.3289397730
  H        12.9823053679        0.6698770362       20.5221965264
  C        14.3411375190        2.1566323624       21.0726017498
  N        10.2489157445        8.8825991480       17.8568040189
  C        10.8672607650        8.4784286878       15.6481678115
  C        11.3180061443        6.2666100646       14.7679816711
  H        10.6889596327        4.5817883104       16.0444078228
  H         3.2102920900        4.5603794483       28.4909439094
  H         3.7356815686        6.1702463740       28.5521452257
  H         3.2492002491        5.2751601993       30.0441478763
  S         4.3181539294        1.9446193758       34.1995987249
  C         4.5556414680       -0.6860340798       34.7676558972
  H         4.6365339658        4.2080383117       18.8386239372
  H         5.2040228446        3.9255784977       17.2199932116
  C         3.4483610157        2.8772295738       17.9710455817
  H        14.2940469002        2.8779402881       20.2483214412
  H        15.0932335411        1.3381891606       20.8493948427
  C        14.8437088525        2.9468575529       22.3367124897
  S        10.2856969052       10.3820127690       17.1534880352
  N        10.6920881010        9.8975009462       15.6189507037
  C        11.2741436256        7.7388466984       14.5429066972
  H        11.6487790681        5.6437212296       14.0152435428
  C         4.0424217296        1.2713756370       35.8046406697
  N         4.2503214845       -0.0981702177       35.8852152167
  O         4.8927844691       -1.8653126369       34.5906330813
  H         2.8025779733        3.6921670855       17.5324762480
  H         3.1881818168        2.7290087309       19.0208146713
  C         3.4669537704        1.6422358627       17.0585969790
  H        15.6240026195        3.6365891493       22.0033664189
  H        13.9211998355        3.5814100717       22.6709151182
  C        15.4996977804        2.0998986460       23.4916386237
  C        11.5062370276        8.4507904537       13.2809412954
  S         3.9298799614        2.2218581472       37.3376987015
  C         4.2451004282       -0.9156298600       37.1058733833
  H         2.7396049417        1.8144729792       16.2466654337
  H         4.3491741581        1.7951652995       16.5405715281
  C         3.3334186058        0.3118386197       17.8433156926
  H        15.2385642904        1.0489153027       23.5844180805
  H        15.0635447551        2.5114477066       24.4157864711
  C        17.0398469403        2.2908578813       23.5500722541
  H        11.2941851227        9.5398728939       13.3017180857
  C        11.9749498456        7.9972227017       12.0671341616
  H         3.5412584240       -0.4819890430       37.8244054266
  H         3.8202768160       -1.8866704534       36.8197191518
  C         5.7906988711       -1.1501853409       37.5766092416
  H         3.0254437020        0.4868682663       18.9103192362
  H         4.2895931685       -0.1870226150       17.9083046414
  C         2.3014812237       -0.7051700765       17.3082525563
  H        17.2673528098        3.3557231407       23.6715487613
  H        17.5235785845        1.8182779813       24.3683525629
  C        17.7134539072        1.7027373190       22.2881632704
  S        12.3786521314        6.3740198302       11.7137809461
  C        12.1579474024        8.9645197759       10.9787145113
  H         6.4504026937       -0.7301476287       36.8300583258
  H         5.9243915276       -0.5143380143       38.4349006338
  H         5.9426888430       -2.1309748798       37.8154923993
  H         2.3170680492       -1.6208226506       17.9417936679
  H         2.5209895025       -1.0530839560       16.3079482049
  H         1.3373669677       -0.1608966123       17.3869773235
  H        17.1310011140        0.9016792725       21.7538031038
  H        18.6904713857        1.3398784199       22.4824910750
  H        17.9034453823        2.4495711677       21.5899098848
  C        12.8765883564        7.0128122743       10.1278451903
  N        12.7229274041        8.3350152833        9.9500049589
  O        11.9771031071       10.1931627145       11.1489883308
  S        13.4765457349        6.0469524628        8.7994662042
  C        12.8912856058        8.9202084143        8.6093308962
  H        13.1955817786        9.9499697196        8.7761471215
  H        13.7598214791        8.6297642323        8.0445993489
  C        11.5592175460        8.9340815707        7.9365625103
  H        11.0903000453        9.7649807445        8.4141824892
  H        11.5766023321        9.1305139689        6.9068192957
  H        11.0033424165        8.1160591362        8.2034482346
  H        21.1768050408       12.5307847582        3.0465754263
  C        21.4804696842       11.4470635468        3.0447044802
  H        20.5968759978       10.7828281719        3.1361068422
  C        22.4993152851       11.0881165589        4.1352252307
  C        22.1192048695       11.1949468792        1.6870424533
  C        22.0175233518       11.2335534817        5.6061797526
  H        22.7420628481       10.0193370268        3.8555248054
  H        23.4090431554       11.6214823269        4.0242519199
  H        23.1704172130       11.3876759628        1.7545133053
  H        21.6937551899       11.8208028985        0.9560561911
  H        21.9801942961       10.1758051484        1.4246087142
  C        21.5733280960        9.9330478361        6.3081916549
  H        22.8316202705       11.6657098843        6.2383696303
  H        21.1936481339       11.9708922411        5.6100515466
  C        20.9532771758       10.1705061418        7.6776310212
  H        22.4507285735        9.3293751769        6.5250162398
  H        20.9294384224        9.4084569917        5.5883454958
  C        19.6951406970       10.9732374058        7.7479184081
  H        21.7692253810       10.7481524031        8.2070300969
  H        21.0080893388        9.2999876220        8.3317908247
  C        18.5895075731       10.1238825790        7.2342800256
  H        19.4399362821       11.2269006002        8.8028783792
  H        19.8650576934       11.9324314015        7.1960043801
  C        17.2076598485       10.9616728897        7.0883642236
  H        18.2303390892        9.3319168429        7.8976628045
  H        18.6477711664        9.8016779801        6.2244696096
  C        17.4918880546       12.3013801862        6.4538136946
  C        16.8187390963       11.7237945767        8.3217046750
  C        15.9774521550       10.2093107222        6.4061315096
  C        17.2313694520       13.4712982612        7.2401390221
  C        18.0699220469       12.6740142913        5.2020598866
  C        16.7811901488       13.0571942261        8.4243714145
  C        16.4022767707       11.0125965788        9.4861666592
  H        16.2175013689        9.6508068430        5.4908884764
  H        15.5898655322        9.4314825103        7.0441672745
  C        14.7418092911       11.0594783464        6.0663710161
  S        17.5728203474       14.9504834546        6.4546660199
  C        18.0284368107       14.0256602405        5.0326645152
  H        18.4323315222       11.8623121946        4.6264715757
  C        16.3359595326       13.6543229995        9.5471470960
  H        16.3803759145        9.9505037790        9.4382015096
  C        15.8579676105       11.5767779833       10.5592124789
  H        14.9663369371       12.1264154740        6.0049966346
  H        14.0732584977       11.0587565908        6.9183978678
  C        13.8687703942       10.5578228038        4.8361697295
  C        18.3116027324       14.7940553957        3.7275491970
  C        15.8152079251       12.9108664306       10.6803024429
  H        16.2668747483       14.7220294463        9.6425258067
  C        15.4199174903       11.1262267658       11.7634864549
  H        12.9320882846       11.0931318167        5.0292344067
  H        13.5846088302        9.4958623703        4.9432653697
  C        14.4072891158       10.8149520350        3.3608317994
  C        18.2223028232       16.2211753692        3.5246011235
  C        18.7948410906       13.9625412507        2.5676105648
  C        15.3255021402       13.6076001010       11.9208320245
  C        15.1838107241       12.2131457095       12.6117976676
  S        15.2386825623        9.5993097940       12.5737465434
  H        15.5211744217       10.7495885619        3.2312726791
  H        14.1639411591       11.8667149031        3.1365438601
  C        13.6929762534        9.8704257489        2.3628776344
  N        17.9128358597       17.1994095649        4.4344587501
  C        18.4883961443       16.7651693693        2.2735573387
  C        19.0699359084       14.6017089993        1.3558967127
  H        18.5879393308       12.9221764064        2.6214161348
  C        13.9817062505       14.3749713964       11.8062493407
  C        16.4131606487       14.2794718359       12.7781774737
  C        14.7438344492       11.7418846788       13.8285037081
  C        14.6624955256       10.3849345093       13.9847268008
  H        14.2285191363        8.9555838694        2.6049131855
  H        12.6406558576        9.7971740399        2.5868947665
  C        13.8597759009       10.1103850517        0.8222232602
  S        17.9317330357       18.6975504253        3.6979784848
  N        18.2502668252       18.1435125742        2.1869572416
  C        18.8908534489       16.0690449164        1.1115619602
  H        19.4885282217       14.0352917532        0.5279094056
  H        14.0372845229       15.2350174328       11.0909600738
  H        13.7832437072       14.8826561463       12.7603673577
  C        12.7710765751       13.4781418113       11.5285573513
  H        16.5811177086       15.3148256181       12.4794788577
  H        16.1043980381       14.3137945955       13.8189841019
  C        17.7178066924       13.5655761495       12.7489936642
  H        14.5636784212       12.4295041021       14.5768390364
  C        14.4274685986        9.6178182040       15.2538968302
  H        14.6449728156        9.4971293109        0.3687871278
  H        14.1718665168       11.1201201767        0.6195128296
  C        12.5939868900        9.9475005652        0.0222264718
  C        19.0818457346       16.7265099307       -0.1006680511
  H        12.9854514985       12.8191215122       10.7507177232
  H        12.5603395796       13.0708108624       12.4720351056
  C        11.5862916483       14.3496604628       11.0802943607
  H        18.0512940182       13.5845734482       11.7031719409
  H        17.6783929927       12.5728964470       13.1684666702
  C        18.7301939687       14.4090813441       13.4610143423
  C        14.3249943601        8.2333495615       15.3442645521
  C        14.1578925915       10.3690733026       16.4871573560
  H        12.2176725184        9.0361725956        0.3542119364
  H        11.8526683652       10.7277947637        0.1023388755
  C        12.9500589413        9.8793018360       -1.4042968936
  H        19.1452571416       17.8431971362        0.0054544423
  C        19.4515615686       16.1995836668       -1.3177634235
  H        11.9755983099       14.9168405089       10.2740526673
  H        11.3639614365       15.1400735875       11.7702847884
  C        10.3957218038       13.4748720559       10.8803900307
  H        19.0863353079       15.2191754142       12.8258872595
  H        18.3488078712       14.8368522799       14.3838873838
  C        20.0865400676       13.7029582869       13.7304864692
  N        14.6811721206        7.3382413670       14.3346999245
  C        14.1069361859        7.5710736038       16.5419668516
  C        13.6533852477        9.6937481721       17.6785380734
  H        14.1550807326       11.4325102099       16.4950786502
  H        12.1336851034       10.1412547865       -2.0776106837
  H        13.4775514225        8.9275897453       -1.7906242821
  H        13.7496319383       10.6355493314       -1.5132129006
  S        19.8384326420       14.5266079946       -1.7809342768
  C        19.6325502065       17.1729195266       -2.4024280559
  H        10.6161915496       12.5308705691       10.3916334333
  H        10.0799266094       13.1233150614       11.8020786455
  C         9.4971990461       14.1195570599        9.8170290012
  H        20.1707473540       13.0643744870       12.8985111348
  H        20.0176782795       13.0913599687       14.6185167655
  C        21.2923596291       14.6469984798       13.7560904833
  S        14.7135690319        5.8127454938       14.9362381030
  N        14.1695274221        6.1557021863       16.4199337575
  C        13.7455747934        8.2056774832       17.7337386241
  H        13.3544568276       10.3257049542       18.5235615725
  C        19.7581279024       15.1945875742       -3.4393771988
  N        19.8974882788       16.5668916854       -3.5484927660
  O        19.6416086601       18.3607809406       -2.1634531600
  H         8.9604329722       14.9334008114       10.4339804858
  H        10.0947293093       14.5509929976        9.0297588222
  C         8.2601091720       13.2604962683        9.3224829053
  H        22.1653694222       14.0813020257       14.1266338371
  H        21.4989030346       15.0154189621       12.7551034558
  C        21.2543541451       15.8411376205       14.7037917708
  C        13.3895376543        7.5058878431       18.9301191389
  S        20.0177390805       14.3329013936       -4.9112557951
  C        19.8498897159       17.3194726031       -4.8128936368
  H         8.4954716449       12.9931590899        8.3280920406
  H         8.1444328273       12.3499256672        9.8664331157
  C         7.0210135275       14.0569107202        9.3548962807
  H        20.6732436530       15.5821682384       15.6705951834
  H        20.5973583941       16.5077157799       14.2178874024
  C        22.5959962881       16.6975906163       14.8168316417
  H        13.7026263807        6.4827287007       18.9996633681
  C        12.8225522570        7.9403513794       20.0967318431
  H        20.5458026510       16.7642314431       -5.4474522446
  H        20.1516188867       18.4164867368       -4.7316374691
  C        18.4485120370       17.3180328272       -5.3952135485
  H         6.3343640280       14.0091807205        8.5278373590
  H         7.2024703640       15.0940475363        9.3346432224
  C         6.3012758658       13.7706377449       10.6897125290
  H        22.9293250517       16.5186507739       15.8590237799
  H        23.3555255079       16.2564074932       14.1377138926
  C        22.5715475436       18.2386083968       14.5976447372
  S        11.9815509338        9.4062605975       20.5699432856
  C        12.7964143755        6.8750407317       21.1554191961
  H        18.1527453064       16.5157053108       -6.0842545360
  H        18.3862080576       18.0979703360       -6.1231494447
  H        17.6778360269       17.5118156806       -4.7136818285
  H         6.8691472063       13.8761526802       11.5659725687
  H         5.4143967623       14.4523486819       10.7268243514
  H         6.0246914244       12.7428776717       10.6761595532
  H        23.5056226149       18.8045060083       14.4159721472
  H        21.9683321192       18.4692391016       13.7521260102
  H        22.0662291638       18.7620007358       15.4218468925
  C        11.7534918313        8.6202962633       22.1062299362
  N        12.0953904211        7.3073870541       22.1695184235
  O        13.2882393552        5.7138566797       21.1277868093
  S        11.2442389441        9.3735559219       23.6838533967
  C        12.0369616840        6.3957850371       23.3621175565
  H        12.1106635358        5.2873340629       23.2690400074
  H        11.2199822329        6.5921503345       23.9842982197
  C        13.2963035134        6.6666407212       24.2572769357
  H        14.2047821597        6.3117184387       23.6988864172
  H        13.2987825120        6.1578667439       25.2453501719
  H        13.4174063527        7.7287685439       24.4290905505
