352
 i =    15300, time =    15300.000, E =        24.1560407874
  H        12.0394634596        5.9293934489       32.7513141474
  C        11.6531069575        4.9167243827       32.5449207132
  H        12.5136650060        4.3458385879       32.3157185085
  C        10.5586391024        4.8912697820       31.3943760945
  C        11.0712290132        4.4554482399       33.8488765101
  C        11.2193263596        5.0666374740       30.0469371045
  H        10.0008259666        3.9139301934       31.4114268687
  H         9.8864061770        5.6851569520       31.5106421644
  H        11.9890144541        4.2804387910       34.4513797013
  H        10.4709194709        5.2269382847       34.3091227344
  H        10.4338113630        3.6190010162       33.8335229809
  C        10.2253406711        4.9048189504       28.9072500249
  H        11.9887409376        4.2712627486       29.9964343217
  H        11.7211050238        6.0171454511       29.8265404596
  C        10.8409009338        4.9366069822       27.4739267465
  H         9.7015354497        3.9693423613       29.0525691652
  H         9.4861691315        5.6762613070       29.0025276401
  C         9.8203783519        4.3181668844       26.4843220398
  H        11.8034746241        4.4119529863       27.5831810809
  H        11.0366837240        5.9521773349       27.1282033695
  C         8.6834020061        5.2858759338       26.0320428548
  H        10.3993029256        4.2123934626       25.5871764516
  H         9.5938886925        3.2569658031       26.6879165838
  C         7.5012948970        4.6138020772       25.2986421270
  H         8.2320641298        5.7419527708       26.9301597583
  H         9.1787573579        6.0521406511       25.4439539081
  C         7.1150623446        3.2686652035       25.8401319730
  C         7.8941012276        3.8970898762       24.0451321150
  C         6.2517267857        5.4866550281       25.0547258847
  C         7.4008492981        2.1445325469       25.0837619891
  C         6.5565598976        2.8968789833       27.0248154230
  C         7.9466207158        2.5357914848       23.9160893415
  C         8.3618135523        4.5651544875       22.9362858420
  H         6.5361282693        6.3767837083       24.5333154052
  H         5.9702207192        5.9014032439       26.0333524534
  C         5.0461586088        4.8565704001       24.4515432107
  S         6.9290456919        0.6546292044       25.8534817218
  C         6.4162593921        1.5031698152       27.1679105460
  H         6.3895436397        3.6430899120       27.8010832004
  C         8.3938861335        1.8955665918       22.7816799143
  H         8.3864242656        5.6530106810       23.0002594866
  C         8.9035268702        3.9262686955       21.8197011683
  H         5.3027729529        4.2393176096       23.5146081202
  H         4.6413629036        4.0926329413       25.2021287682
  C         3.8131397632        5.7275885316       24.2325841277
  C         6.0290711770        0.7985007512       28.4181546082
  C         8.8406610835        2.5925134596       21.6524419624
  H         8.3440955015        0.8535843720       22.7294686549
  C         9.2883064220        4.3391341389       20.6089377066
  H         3.0468265829        5.0999475554       23.7724178238
  H         4.0698567887        6.4922674558       23.6004015585
  C         3.1879881243        6.1093235793       25.5758832514
  C         6.0563156266       -0.6103320333       28.6362619554
  C         5.5349712598        1.6088717619       29.5900476117
  C         9.1713364355        1.9783341397       20.3414901648
  C         9.4899103940        3.2698880214       19.7332766458
  S         9.5189437360        5.8709459202       19.8942967336
  H         2.4299115361        6.8511738252       25.2919381890
  H         3.9111249353        6.5779105017       26.2657332574
  C         2.4137997885        5.0176744736       26.2922801337
  N         6.2280216516       -1.6047303478       27.6419082772
  C         5.6857798138       -1.1777672216       29.8433661443
  C         5.1385998194        1.0219642191       30.7253945755
  H         5.3397943609        2.7197265966       29.3592455542
  C         7.9946668948        1.1161841742       19.6967521663
  C        10.4824388889        1.1559300698       20.4396229369
  C         9.8601990396        3.7733536679       18.4596485835
  C         9.9660522136        5.1015545603       18.3530011299
  H         1.5341882821        4.9034265067       25.6040269896
  H         2.8732472226        4.0100966121       26.3835135829
  C         1.7860827989        5.4367096327       27.6718553280
  S         6.2732942222       -3.1259616419       28.3128163519
  N         5.6967132760       -2.5886804325       29.7951429997
  C         5.3173520599       -0.4561351182       30.9467388939
  H         4.5401086638        1.5379683331       31.4628946706
  H         7.5722063771        0.3731148442       20.3653843567
  H         8.2635121573        0.6570890310       18.7968992746
  C         6.7551828811        1.9596064861       19.3626682147
  H        10.6479285260        0.7444878688       19.4389773841
  H        10.2403962307        0.3042434047       21.1000569080
  C        11.6984030033        1.9066543379       20.9650576610
  H         9.9249020318        3.1170627132       17.6284447130
  C        10.3430153844        5.8834399351       17.0813447378
  H         0.8742630981        5.0026540736       27.9616762997
  H         1.3652681110        6.4715551093       27.5310474218
  C         2.7704640027        5.3883087591       28.7793257562
  C         5.0462263447       -1.2286557909       32.1284469262
  H         7.0620456823        2.8881019239       18.8891063759
  H         6.3116226403        2.2269605344       20.3589340943
  C         5.5607438160        1.4009507941       18.5739588930
  H        11.4963923699        2.3520955628       21.9403010996
  H        11.8224267419        2.7749380926       20.3671602623
  C        13.0189327481        1.0617405714       20.8282603535
  C        10.2817160343        7.2850144627       16.9587345538
  C        10.6958322717        5.1853361674       15.8509967189
  H         3.3929976360        4.5082715047       28.8068764685
  H         3.5081380964        6.1879371579       28.5907168414
  C         2.0473537412        5.6452518684       30.0995373031
  H         5.2616377846       -2.3147553375       32.0605523445
  C         4.5663441026       -0.8053543164       33.3427471898
  H         5.1836213819        0.5301216592       19.0644301507
  H         5.9689922160        1.1253851536       17.5352882156
  C         4.5024646468        2.3909956888       18.3323767053
  H        13.0522386769        0.3782565549       21.6366268118
  H        13.0183577552        0.5059750730       19.9428234721
  C        14.3252023656        1.8455517673       21.0630280100
  N         9.9567934152        8.1670767263       18.0515904273
  C        10.5922066706        7.9727697088       15.7993675465
  C        10.9141249483        5.8367363529       14.6687309432
  H        10.7066038546        4.0791172203       15.8883338689
  H         1.7905474055        6.6416144333       30.2998659614
  H         1.2510849113        5.0007968404       30.3695147113
  H         2.8110719582        5.5017923896       30.8876253058
  S         4.4618807652        0.8434529058       33.8691916021
  C         4.4562308271       -1.7713230808       34.4115354283
  H         4.4167979543        3.1093005580       19.1278763057
  H         4.7722071269        3.0124014008       17.4712569277
  C         3.0775692750        1.7467194487       18.3178686210
  H        14.2763075973        2.7870558408       20.5640598099
  H        15.0950069992        1.3445873716       20.4875069652
  C        14.5196280507        2.0666261725       22.5344889841
  S        10.0851336336        9.7201373376       17.5623995379
  N        10.4895339459        9.3707128959       16.0111840656
  C        10.9190586130        7.3571209140       14.5753435247
  H        11.1189848279        5.1612931319       13.8218527530
  C         3.9670224517        0.2358450628       35.4533359507
  N         4.0243182340       -1.1305494069       35.5424620869
  O         4.6432258192       -2.9458753693       34.2463674141
  H         2.3465843873        2.5242430809       17.9941556539
  H         2.8679834023        1.5106389126       19.3510088299
  C         3.1112155815        0.4428758810       17.4622941740
  H        14.9524676771        3.0462232806       22.7343373355
  H        13.5912470599        1.9682029168       23.0437615012
  C        15.5007806048        1.0523437322       23.0261460738
  C        11.2519657473        8.1486124573       13.4676296495
  S         3.5524601414        1.2115017721       36.9613178680
  C         3.9794153392       -1.7536481433       36.8814042613
  H         2.3397649385        0.4959677656       16.6636246128
  H         3.9788165813        0.2807027464       16.9108416434
  C         2.6043154595       -0.7542993063       18.2896067747
  H        15.6898836495        0.1885803928       22.3879537322
  H        15.0248861689        0.4563158194       23.8160295513
  C        16.8336310307        1.5902534426       23.4951197384
  H        11.0534046813        9.2155106643       13.6726721772
  C        11.7104304406        7.8718898995       12.1743940669
  H         3.2474882119       -1.2882916888       37.4514466436
  H         3.7291594045       -2.7527654575       36.8706969760
  C         5.3912139867       -1.6946542632       37.4809348520
  H         1.5531699310       -0.4396954319       18.4787661597
  H         3.1204979203       -0.8922530584       19.1691676446
  C         2.6600109719       -2.0615966782       17.4693788765
  H        16.7547510233        2.4521473490       24.2490454124
  H        17.2766796420        0.8125797231       24.0507880450
  C        17.6963521849        2.0158460403       22.2450859204
  S        12.2671516017        6.3632953667       11.5776684141
  C        11.6887473906        9.0054237033       11.2389277184
  H         5.7444573788       -2.7289472223       37.3474043976
  H         5.9626786667       -0.9818081686       36.9243553518
  H         5.4899643907       -1.3978498130       38.4950770139
  H         2.8785989203       -1.8775025002       16.4614247363
  H         1.6225693290       -2.4928101680       17.4415608772
  H         3.3686629752       -2.7760348499       17.8580446873
  H        18.7509786137        1.8536047313       22.3111807876
  H        17.5480866384        3.0456274968       21.8613794813
  H        17.4623300100        1.3954191183       21.3764462514
  C        12.5269443699        7.3242711941       10.0390572989
  N        12.1640778102        8.6164319415       10.0501129201
  O        11.1235242586       10.0790347092       11.4898549206
  S        13.2286367951        6.6276945108        8.5641273529
  C        12.0731554181        9.5071666375        8.8917142684
  H        11.9733728527       10.5455166374        9.2685709130
  H        12.9642053681        9.4819597474        8.2934593982
  C        10.7859919961        9.3129431147        8.0833691988
  H         9.8292393427        9.4518055790        8.6503725178
  H        10.8011302690        9.8697404342        7.1710761492
  H        10.7287385157        8.2366028386        7.8475404646
  H        20.3941481937       11.0393149508        3.5918390547
  C        21.2042901536       10.2797262787        3.5653477717
  H        20.8167047975        9.2770589768        3.7947239493
  C        22.2731718281       10.7260784232        4.5482312356
  C        21.7641291157       10.2477930024        2.0770310509
  C        21.6582875107       11.0809805943        5.9562164106
  H        22.9994020023        9.9174295610        4.7070192401
  H        22.6900604188       11.6475807338        4.0718183509
  H        21.6400491556       11.1911782502        1.5231551795
  H        21.3209018065        9.4365166383        1.4707991062
  H        22.7724364840        9.9255523299        2.1039765348
  C        21.2013150579        9.7637168134        6.6340554948
  H        22.4412263904       11.5783433737        6.4760418648
  H        20.8696371034       11.8242627436        5.8218254411
  C        20.5032502848        9.8906377441        7.9820953412
  H        22.0120880266        9.0879316202        6.6997916537
  H        20.5258486975        9.2176643341        5.9946240880
  C        19.1930132938       10.5309032049        7.9243450198
  H        21.2176617724       10.5112897473        8.5183463796
  H        20.4889860763        8.9346489145        8.5144888499
  C        18.0407562175        9.7780737966        7.3403171630
  H        19.0317808743       10.7126280310        8.9806684583
  H        19.3878185617       11.4839868128        7.4173788344
  C        16.7934923262       10.6184460875        7.0919610378
  H        17.8861901435        8.9786672729        8.0832625831
  H        18.3659833913        9.1549666026        6.5029278452
  C        17.0894241894       12.0003387226        6.4375603958
  C        16.3642312196       11.3889698703        8.3637370564
  C        15.6004532880        9.8395566739        6.4292936852
  C        16.7614422630       13.0926805159        7.1741477990
  C        17.5640377419       12.3812499099        5.1737053373
  C        16.3407322993       12.7234787115        8.4187296293
  C        15.8981263648       10.7213017278        9.5206449672
  H        15.9897119688        9.3189335490        5.5984312506
  H        15.2314546865        9.0762584772        7.1390503654
  C        14.4048295703       10.7812231777        6.0781336942
  S        17.2625544347       14.5808050795        6.4706608988
  C        17.6332494519       13.7314470615        4.9877539123
  H        17.8626310174       11.6291138786        4.5084140785
  C        15.8604685514       13.3337492671        9.5677751933
  H        15.9294522366        9.6252662896        9.6185297395
  C        15.5392039527       11.3561058195       10.6845832504
  H        14.7912475073       11.6091307817        5.5262900129
  H        13.8841409867       11.2365605038        6.8818815340
  C        13.3521103189       10.1517669056        5.1686001570
  C        18.0264955412       14.3838779679        3.7326419330
  C        15.4713618647       12.6752556276       10.7348572401
  H        15.8245465898       14.4524237073        9.6097303465
  C        15.1676723219       10.9470646274       11.9693661479
  H        12.4791251050       10.7858883578        5.2991022666
  H        13.2018118174        9.1722839170        5.6321916478
  C        13.8520862173       10.1387489218        3.7145234712
  C        17.9962169138       15.7987466019        3.5736994527
  C        18.5847570732       13.6273073934        2.6198317724
  C        15.0288907880       13.3664121124       12.0361822574
  C        14.8070812413       12.0232847476       12.8198692868
  S        14.9903883661        9.3731390082       12.6486740082
  H        14.3273327808        9.1961090976        3.5451962206
  H        14.7051104806       10.7965675241        3.5777707209
  C        12.7422067664       10.2180313455        2.6685062343
  N        17.5407617472       16.7091531411        4.5682760756
  C        18.2513079053       16.3982179188        2.3505687863
  C        18.9657396397       14.2591488143        1.4520503623
  H        18.6660561432       12.5209021304        2.6821743089
  C        13.6985622300       14.1301825679       11.6558680800
  C        16.1487790526       14.2084194163       12.7661418611
  C        14.4187086912       11.5802350615       14.0986220537
  C        14.5477531726       10.1932441082       14.1222433469
  H        12.2482273388        9.2697181979        2.7008587719
  H        11.8949362941       10.9254621621        2.8822776265
  C        13.4151672733       10.3641294589        1.2373719441
  S        17.5142034786       18.1980947697        3.9080350500
  N        17.9795939826       17.7408345002        2.3661759173
  C        18.6305016986       15.6796939142        1.2186220416
  H        19.3561096415       13.6196604131        0.7061937295
  H        13.9616434002       14.7806756493       10.8691584331
  H        13.3960291476       14.8233273716       12.4292387996
  C        12.5397086714       13.1979374830       11.4753736503
  H        16.3959970535       15.0201783558       12.0381091140
  H        15.7370590929       14.7892920446       13.5991008137
  C        17.3381014693       13.3831366561       13.2130460827
  H        14.0538598222       12.3330259139       14.7788373374
  C        14.2719770434        9.3278440597       15.3271307078
  H        14.2842981502        9.7043924124        1.1734386229
  H        13.6632806176       11.4173543464        1.0673117904
  C        12.3784035680       10.0837043666        0.1023274303
  C        18.7997043484       16.3612940164       -0.0378991479
  H        12.6532763573       12.6729447293       10.5407683863
  H        12.4095348927       12.5045986953       12.3067803631
  C        11.2309304022       14.0075937790       11.2170212945
  H        17.7162183842       12.8080638760       12.3963769758
  H        16.9494179397       12.7050590029       13.9962123893
  C        18.4913414751       14.2628791731       13.7059944280
  C        14.2763658483        7.8525507902       15.4115451205
  C        14.0610473074        9.9664796279       16.6096109142
  H        12.0014546391        8.9923781413        0.0325191217
  H        11.5096414985       10.7337879533        0.2668486157
  C        13.0404312320       10.3992072404       -1.2436325275
  H        18.6209735073       17.4395524909       -0.0246359243
  C        19.1933642965       15.9599888261       -1.2870455595
  H        11.4295550949       14.7330060255       10.4521708251
  H        11.0542539513       14.6227495963       12.0458060560
  C        10.0909095005       13.0998775943       10.7267523499
  H        18.6993022457       15.1210630632       12.9756015647
  H        18.1396587949       14.7656987971       14.6331673265
  C        19.7713611694       13.5145376748       14.1144635937
  N        14.5641596928        6.9163873451       14.3655757040
  C        13.9020807517        7.1944562191       16.5914281300
  C        13.6163342786        9.3115812461       17.7357620516
  H        14.0230956440       11.0459409968       16.5991671497
  H        12.6268650773       10.0731401712       -2.1652870662
  H        14.0747506731       10.1551918053       -1.2199306157
  H        13.1784393347       11.4638588934       -1.3574161844
  S        19.4399261760       14.2809317260       -1.8013765368
  C        19.3455662598       16.9983500750       -2.3506166685
  H        10.5708503236       12.3963492142       10.0787522198
  H         9.6219216065       12.6385320161       11.6546766500
  C         8.9438434437       13.8923218151       10.0514399690
  H        20.2078868755       13.0187200192       13.2712379165
  H        19.3950866007       12.6335282487       14.7853371459
  C        20.8832838665       14.3544691208       14.7776308208
  S        14.5246161003        5.4060316792       15.0044220219
  N        14.1261659305        5.7951348763       16.5155225992
  C        13.4852454070        7.8028737164       17.7564432129
  H        13.3899968380        9.8963128219       18.6270265545
  C        19.7462570938       15.0040262483       -3.4729187464
  N        19.7465904097       16.3989725430       -3.5193806519
  O        19.2163190564       18.2392247820       -2.1642372168
  H         8.5687470112       14.6197232854       10.7742619716
  H         9.3101138446       14.4680363229        9.2000186434
  C         7.8205782386       13.0171648918        9.5334189860
  H        20.7945747468       14.3061650228       15.8522040404
  H        21.7918748064       13.8687237472       14.4555801536
  C        20.8894681421       15.7116634580       14.2422945258
  C        13.0828046088        6.9910781823       18.8782538815
  S        20.1776116214       14.1541545779       -4.9132018122
  C        20.0561861071       17.0925181603       -4.7242501429
  H         7.6138128055       13.1421057762        8.4964444014
  H         8.1727585158       12.0166683176        9.4695490293
  C         6.5344518938       12.9747308179       10.3206400462
  H        19.9503921773       16.1834895858       14.5068218023
  H        20.8604902495       15.6237156504       13.1288046045
  C        22.0775854803       16.5640996768       14.7450702365
  H        13.0887736721        5.9622237574       18.6754050129
  C        12.4830853198        7.2757314551       20.0516905805
  H        20.7865655049       16.5367536613       -5.4001986898
  H        20.4761968062       18.0665548540       -4.3206959471
  C        18.7859117437       17.3375844514       -5.5680856613
  H         6.6037858255       12.9313935099       11.4162408639
  H         5.9429492292       12.1080328886        9.9491043331
  C         5.7153363784       14.2312979516       10.0040656769
  H        23.0621849074       16.2242133578       14.4017468072
  H        22.0706433653       17.4899125468       14.1902853410
  C        22.1094755232       16.8377883429       16.2402825413
  S        12.0446267789        8.7913941857       20.6275420295
  C        12.3701818510        6.2305868237       21.0685828372
  H        17.8152353922       17.1179579870       -5.1241849653
  H        18.8436764742       16.8127605579       -6.5180415639
  H        18.7609613519       18.3949716083       -5.8877528417
  H         5.9888284250       14.6969774030        9.0377173843
  H         4.6731928877       13.9182895864       10.1102466554
  H         5.9916204131       14.9812851452       10.7101474369
  H        22.9924472731       17.4474572864       16.5641439789
  H        21.2029183066       17.3504732675       16.4925762127
  H        21.9972402823       15.9476017906       16.8847885275
  C        11.5805913507        8.0164463662       22.1427973271
  N        11.7809111757        6.6987551873       22.1612363645
  O        12.9119405641        5.1242101995       20.9738213665
  S        10.8430463247        8.6628045584       23.6059213114
  C        11.6758141016        5.8962716972       23.3788939178
  H        11.5098246646        4.8067479899       23.1467328759
  H        10.8847683578        6.1505724417       24.0676919213
  C        12.9021794070        6.1026347911       24.2255988568
  H        12.7172324833        6.8132842438       25.0299670687
  H        13.7993193781        6.3988567706       23.7022168360
  H        13.1407522393        5.1631155935       24.7677301024
