352
 i =    46400, time =    46400.000, E =        24.7581309078
  H        10.8983124057        7.7917052312       33.2465932949
  C        11.2823575762        6.9859598733       32.6873326980
  H        12.1902946877        7.4355175275       32.2633089961
  C        10.2290447699        6.6105387778       31.6446485628
  C        11.6776188100        5.6920083385       33.5738829880
  C        10.9876186989        6.4046808224       30.3001994470
  H         9.5882728629        5.7724026335       31.9576018042
  H         9.5598756180        7.4244844338       31.5729902654
  H        11.3133910771        5.7851197398       34.5974605696
  H        11.3465538038        4.7678860687       33.1029265010
  H        12.7589381558        5.6431547296       33.6318765296
  C        10.0930830989        6.1825754555       29.0623037150
  H        11.6643288788        5.5991549759       30.3553986781
  H        11.5354517818        7.2695769025       30.1148957689
  C        10.7544103019        5.6063831775       27.8246130509
  H         9.3783036283        5.4764306495       29.3983036936
  H         9.4855053766        7.0312991956       28.8242845948
  C         9.6082973058        5.0471285503       26.9087660473
  H        11.5422122767        4.7850724528       28.0679981318
  H        11.2850531940        6.5241296195       27.3804878928
  C         8.4317560930        5.9827926417       26.6277403776
  H        10.0279030907        4.6209649081       26.0722457313
  H         9.3133318354        4.1255922812       27.4526255123
  C         7.2432196784        5.3803044046       25.8014631856
  H         7.8259222889        6.2057969638       27.4917928888
  H         8.8419849993        6.8288919938       26.1202858447
  C         6.8064711267        4.0469147390       26.3611233832
  C         7.6832674333        4.6684572027       24.4722902740
  C         5.9856153364        6.3192496815       25.6809602896
  C         7.0283240635        2.9562061305       25.5673954300
  C         6.2657294320        3.7063205345       27.6238566588
  C         7.5950734581        3.3296482720       24.3839273034
  C         8.1535294020        5.3750642612       23.3468095709
  H         6.2535584523        7.2026315361       25.1079027116
  H         5.7076414420        6.7472679062       26.6197823912
  C         4.8094741884        5.7636009118       24.7819734622
  S         6.4972407689        1.4459310942       26.2772708065
  C         6.0564760359        2.3951919389       27.7207362009
  H         6.0520138390        4.4747824375       28.3371206695
  C         7.9385752315        2.8137631883       23.2470407340
  H         8.1775689512        6.4919911918       23.4296767006
  C         8.5640285048        4.7758205852       22.2432994896
  H         5.1706013545        5.6379457000       23.8007502638
  H         4.5617367158        4.7475596272       25.1260735138
  C         3.4848458516        6.6387263881       24.6847063751
  C         5.6927533784        1.7270350940       28.9323523150
  C         8.5319054564        3.4641819107       22.1524348995
  H         7.8515867218        1.7288465794       23.1653527994
  C         8.9744501799        5.1107442325       20.9823203656
  H         2.7739904727        6.2128616950       24.0254693428
  H         3.8291312469        7.6274473125       24.3366303428
  C         2.9136254036        6.8636042773       26.0852955010
  C         5.8872997466        0.3209298566       29.2343895898
  C         5.2704589633        2.5876950014       30.0801037950
  C         9.0390028707        2.7400263483       21.0247301124
  C         9.2056792695        4.0011140704       20.1769324345
  S         9.2657891699        6.5611714628       20.1170458129
  H         2.1802756922        7.7065489915       26.0495399323
  H         3.6644786162        7.0749443980       26.7573922347
  C         2.2642649598        5.5511349698       26.6808454877
  N         6.2421362001       -0.6491748776       28.2936149516
  C         5.5942572252       -0.2300057769       30.4851648395
  C         5.0263423158        1.9535755800       31.3270569780
  H         5.1249943639        3.6806498920       29.9264571256
  C         7.8712271341        1.8048427051       20.4363842277
  C        10.3573515128        2.0508323307       21.4018344862
  C         9.5503791079        4.3359444430       18.8627508588
  C         9.5653074284        5.6745930165       18.6551542057
  H         1.4509686026        5.1743365937       26.0013308818
  H         3.0113172065        4.7254380872       26.7866709650
  C         1.4528325628        5.7225113324       28.1111933689
  S         6.2042587138       -2.0627907900       28.9956372201
  N         5.8195613511       -1.6297813293       30.5255620198
  C         5.2503223674        0.5431217081       31.6594627900
  H         4.7856860092        2.5520705218       32.1598793650
  H         7.4071018278        1.1300220794       21.1341024078
  H         8.4141050173        1.1059624144       19.8330738645
  C         6.7334574353        2.5270191273       19.7493736971
  H        10.2557708361        1.2156879343       22.0537400748
  H        10.7946181010        2.8437008283       22.0289883143
  C        11.4107640013        1.6545626028       20.3131868895
  H         9.6325574743        3.4856115580       18.1450734983
  C         9.8804608965        6.3881999832       17.3177491779
  H         0.9523636905        4.7814164733       28.3488363707
  H         0.7805472714        6.5648747118       28.1231778689
  C         2.4491088087        5.9837888917       29.2359828075
  C         5.0354045117       -0.0936882375       32.8939400651
  H         6.8563322688        2.9986589319       18.8250446345
  H         6.3163366018        3.2203274293       20.4000001022
  C         5.6656010448        1.5687382418       19.3868903107
  H        11.7271640797        2.6441118990       19.8973093049
  H        11.0319598942        1.1186808760       19.4910003864
  C        12.5707349105        0.9519220105       21.0050324280
  C         9.9771539292        7.8136401555       17.1211774776
  C        10.1803064298        5.6511730814       16.0721802079
  H         3.2210551604        5.1808287550       29.2727709707
  H         3.0050263178        6.9211968217       29.0062832811
  C         1.7726474975        6.1788629308       30.6326731729
  H         5.2445493214       -1.1092144388       32.8165580756
  C         4.7477132514        0.3478068441       34.1801930711
  H         5.1997471353        1.2858327477       20.3358859209
  H         6.0818263564        0.7523013514       18.8307895317
  C         4.5863197354        2.3205807863       18.5705629811
  H        12.2700932765        0.5758496506       21.9663441286
  H        12.8623550227        0.1036723415       20.4113644690
  C        13.8882695253        1.7202189385       21.1225790845
  N         9.7140868999        8.7966807917       18.0989996762
  C        10.2081309108        8.4649477506       15.9098463645
  C        10.3184846114        6.2863905988       14.8047148332
  H        10.0533309966        4.5619179855       16.0920824858
  H         1.2457358028        5.2505362443       30.8630474214
  H         2.4666075657        6.3055507305       31.4090665444
  H         1.0536178214        6.9292658114       30.6557753102
  S         4.2217037367        1.9760334535       34.5960443974
  C         4.7568606414       -0.6231032461       35.3505840128
  H         4.2921187616        3.2540749660       19.1024917712
  H         4.8686062611        2.6390520723       17.5661509992
  C         3.3834207558        1.4423506180       18.3085939548
  H        13.9583071861        2.2288169743       20.1449930565
  H        14.6312785061        0.9506646036       21.1512004745
  C        14.0565594164        2.6891154939       22.2424232369
  S         9.7406741658       10.3116634405       17.3364035859
  N        10.1887719230        9.8545995893       15.8551799549
  C        10.4467325047        7.7779310773       14.7040791191
  H        10.2949566442        5.6495581612       13.9601105485
  C         4.1925803349        1.3239274637       36.3084827927
  N         4.4596673729       -0.0093660139       36.5237442575
  O         5.0730406522       -1.8194282755       35.2294095904
  H         2.4930310733        1.9822499890       18.0920309242
  H         3.1255576105        0.8970999820       19.1846253147
  C         3.5892658160        0.4817288516       17.2185353330
  H        14.5118107193        3.6018047736       21.9451700774
  H        13.1106047622        3.0190793554       22.6334895503
  C        15.1100912325        2.2781696608       23.2997729530
  C        10.5866102058        8.4443502863       13.4079614760
  S         3.5874810361        2.2160871168       37.7180207313
  C         4.5642480807       -0.7436537553       37.8140970218
  H         3.6712818969        1.1582792109       16.3115472278
  H         4.5592864601        0.0196803711       17.3996856405
  C         2.4623972767       -0.4554633627       17.0207532137
  H        15.5377805003        1.2734984209       23.0862757596
  H        14.5450583948        2.2288523819       24.1904857172
  C        16.2757755871        3.2896095986       23.5781188847
  H        10.4894512806        9.4783477428       13.4437878965
  C        10.9717119399        7.9930953851       12.1943060344
  H         4.0307273789       -0.2065002633       38.6173988076
  H         4.0630604027       -1.7471279879       37.8273192905
  C         6.0385168144       -0.9380939461       38.1052570522
  H         2.7348920793       -1.2684274778       16.4011803260
  H         1.7171139453       -0.0066887605       16.3736214795
  C         1.7986057231       -1.1420916196       18.2332814020
  H        15.9979087611        4.2889691206       23.2453693259
  H        16.4957481858        3.1954499364       24.6272342681
  C        17.5480829217        2.8390294412       22.8259486800
  S        11.5732757119        6.3822405288       11.8212610503
  C        11.2943240446        8.9991508823       11.1357170170
  H         6.6233254166       -0.0432512306       38.0101433089
  H         6.2572749104       -1.3181551616       39.1386050092
  H         6.3844236456       -1.6774657318       37.4667255143
  H         1.0076049021       -0.5688657621       18.6542958425
  H         2.4631637209       -1.3650277829       19.0342283991
  H         1.3425480285       -2.1232534788       17.9651042235
  H        17.6691399423        1.8036411699       22.6087131791
  H        18.4557980417        3.0072111017       23.3704116791
  H        17.6086485267        3.4281966450       21.9142804724
  C        12.1159735187        7.0505516150       10.3036326000
  N        11.9235048600        8.3844545588       10.1508629115
  O        11.0376007117       10.2206281739       11.3078476615
  S        13.1876725300        6.2305397181        9.1527871362
  C        12.2925720221        9.1888821644        9.0012140900
  H        12.5358196476       10.1658912550        9.5023177989
  H        13.1794625474        8.7292697036        8.5706280566
  C        11.1087310698        9.3851462828        8.0448770704
  H        10.3183682385        9.9420031157        8.5522913958
  H        11.4524344921        9.8357920560        7.1017027360
  H        10.5099881253        8.5287344790        7.8795044358
  H        20.7494172783       11.0142177043        3.8999051982
  C        21.4434645792       10.1833996478        3.8345277321
  H        20.7953511580        9.2734466356        3.8323041143
  C        22.3006397602       10.1034703162        5.1411577238
  C        22.1667191188       10.3167865729        2.5499899539
  C        21.5552368915       10.2229881112        6.4312036293
  H        22.9049804821        9.1666999136        5.1791322532
  H        23.0240015422       10.8797355228        5.2776088705
  H        22.6711981925        9.3921602362        2.3177256259
  H        22.7942708926       11.2204966224        2.5646802029
  H        21.4158813198       10.5722977021        1.8237412399
  C        20.6106297827        9.1338766087        6.9102565454
  H        22.3524377731       10.4027909181        7.2017859437
  H        21.0764997672       11.2095055936        6.3568889965
  C        19.7876594831        9.5407915166        8.0457926683
  H        21.3018358325        8.3418349436        7.1343021051
  H        19.9950570380        8.8644584334        6.0531307832
  C        18.6231192176       10.4222657379        7.6642589134
  H        20.5323690151       10.1091365892        8.7416823020
  H        19.4138777589        8.6965209654        8.6406953506
  C        17.3922222754        9.6704332288        7.1033856569
  H        18.3438346535       10.9494661715        8.6357161873
  H        19.0272583614       10.9853685883        6.8586088109
  C        16.1384377980       10.6442411940        6.9938564431
  H        17.2353370139        8.8711603789        7.8529751202
  H        17.5463321930        9.2309846105        6.0913915279
  C        16.5505723786       11.9467747563        6.3068933866
  C        15.7646997842       11.3637348001        8.2383813224
  C        14.9573619724        9.9698568806        6.2419277125
  C        16.3189613950       13.0655560295        7.0671715369
  C        17.1254019901       12.2795430979        5.0542832772
  C        15.8533740069       12.7186348582        8.3132099634
  C        15.3597861542       10.7508631313        9.4094766931
  H        15.3258397730        9.4008404812        5.4188954444
  H        14.2877166557        9.3763366019        6.9369028235
  C        13.9018707582       11.0113981248        5.6454498228
  S        16.7038725843       14.5772917680        6.2976991559
  C        17.2232929837       13.6628545657        4.8944420070
  H        17.4494576557       11.4564566344        4.3959990341
  C        15.4237308618       13.3000754883        9.4649824214
  H        15.2181521445        9.6350702937        9.3899128511
  C        15.0454476316       11.3310922787       10.5845615049
  H        14.4096329986       11.7305209741        4.9818187741
  H        13.5259017493       11.3783660062        6.5547295087
  C        12.8832712038       10.3185698636        4.7797326973
  C        17.6910031065       14.2435624637        3.6160870918
  C        15.1038912216       12.6551023181       10.6525811027
  H        15.4808464720       14.3422110078        9.4885557695
  C        14.6811475425       10.9333718811       11.7927102890
  H        11.9585648461       10.8114017552        4.6422296194
  H        12.6117368299        9.3137916165        5.2461765536
  C        13.3873448352       10.0899178620        3.2711275200
  C        17.7429222514       15.5712311885        3.3066816573
  C        18.1870832819       13.3652299831        2.5125405145
  C        14.7710751390       13.3914779368       11.9578368411
  C        14.5443798801       12.0418845199       12.6206306612
  S        14.2976329873        9.4304869280       12.5357068786
  H        13.8768464115        9.1420769992        3.1761793428
  H        13.9522434712       10.9558924478        2.9055364439
  C        12.1435936694        9.8515319574        2.2546962264
  N        17.3019383069       16.5511186791        4.1832592919
  C        18.0642320490       16.1056262072        2.0854248783
  C        18.5286964343       13.8838319569        1.2511983485
  H        18.3541064697       12.3506986488        2.6653104244
  C        13.4411877252       14.1992989560       11.9497791453
  C        15.9621590903       14.2197160604       12.6004593678
  C        14.1957307160       11.6737803018       13.9215572891
  C        14.0125555179       10.2628290111       14.0042183363
  H        11.5616584202        9.0856998498        2.7087131502
  H        11.5150930746       10.7867199176        2.0559041308
  C        12.4880248644        9.4229487641        0.8238052331
  S        17.5846879295       18.0394092054        3.5369662781
  N        17.9748523598       17.5612272352        2.0451628830
  C        18.4377072039       15.3323831175        0.9778090247
  H        18.9552285728       13.1769028682        0.5550410234
  H        13.5296934904       15.0266409185       11.2564286453
  H        13.3940767690       14.8699984711       12.8366656311
  C        12.1631721404       13.3200799625       11.6475204746
  H        16.2532203973       15.0386934158       11.9005465525
  H        15.6807822679       14.7406028575       13.5047765932
  C        17.0745214513       13.3518405933       13.1212256699
  H        14.0974926417       12.4280768961       14.7424127895
  C        13.6437116421        9.5308115067       15.2593280202
  H        11.5853037932        9.0604365420        0.2902824763
  H        13.1609529544        8.5346672630        0.7673563016
  C        13.0399478504       10.5207229975       -0.0488734469
  C        18.7748478694       16.0290040145       -0.2087890628
  H        12.3685861061       12.7766121037       10.7407703219
  H        11.8674299243       12.6537370904       12.4135717108
  C        10.9869683465       14.1535172234       11.1452520913
  H        17.1830451837       12.5491022955       12.3676637637
  H        16.8094362265       12.9020162303       14.0823273179
  C        18.2026756882       14.3175093400       13.5386502919
  C        13.6471391819        8.1400683086       15.4480108206
  C        13.2606993952       10.3124160959       16.4835691940
  H        12.7833857930       11.5577093143        0.3268701509
  H        14.1176950087       10.5203453054        0.0801707519
  C        12.4087262286       10.5515012662       -1.4697650930
  H        18.8890894636       17.1184307216       -0.0835795420
  C        19.1351880365       15.6866685018       -1.4752966655
  H        11.2874957338       14.7858216788       10.3536270895
  H        10.5661340868       14.7634373907       12.0124948767
  C         9.8928941569       13.2289739163       10.8085348316
  H        18.4224463313       15.0671233414       12.7362969133
  H        17.9318944531       14.9481478333       14.4131195065
  C        19.4515511460       13.5332374539       13.7761197188
  N        13.8791841770        7.2886842325       14.3888550733
  C        13.3220313901        7.4767412645       16.6498057562
  C        13.1351839653        9.6875338538       17.7255013957
  H        13.2312884676       11.4402764532       16.4698633382
  H        11.4835842968       10.0532390640       -1.4650919916
  H        13.0194681587        9.9709664862       -2.1733765397
  H        12.2712420246       11.5802940941       -1.8724790111
  S        19.4482064304       14.1117882680       -2.0797228612
  C        19.1511728515       16.7337049596       -2.5576943638
  H        10.3067325496       12.4846991663       10.1306379670
  H         9.6108927400       12.6208811632       11.6425159329
  C         8.6831719690       13.8951961469       10.0901089452
  H        19.3394486791       12.7816362888       13.0673698961
  H        19.4921402678       13.1138598168       14.7859108814
  C        20.7656200578       14.3641082242       13.6795712487
  S        13.8444404757        5.7502763046       14.9741937041
  N        13.2721839675        6.0504304389       16.4990250192
  C        13.1592058158        8.1625725833       17.8617390376
  H        12.9386399243       10.3782012212       18.5321516182
  C        19.7480197675       14.8491227530       -3.6598868491
  N        19.4638194242       16.1456729335       -3.7596597376
  O        18.9348843819       17.9184989546       -2.4077090009
  H         7.8693997734       13.9339881330       10.7619668910
  H         8.8547322198       14.9397759745        9.8576138693
  C         8.1772351132       13.0688736014        8.8424228624
  H        21.4659216146       13.6061287049       13.6262699321
  H        20.8283692394       14.7783251568       12.6757528637
  C        21.0263469232       15.4318327500       14.7450256346
  C        12.9847705910        7.3588371070       19.0053530782
  S        20.1377688766       13.9552230022       -5.1547548868
  C        19.1670942246       16.8177964235       -4.9920454012
  H         8.8932046676       13.0796894175        8.0664969450
  H         7.8798582238       12.1215825889        9.2191372924
  C         6.9424897008       13.8231356049        8.2550511272
  H        21.7510541898       15.1654173259       15.5339971373
  H        20.0967602132       15.6861936118       15.2587172169
  C        21.6333774531       16.6760686754       14.1469446643
  H        13.1835660401        6.3314410571       18.7511532586
  C        12.6124273983        7.5790591782       20.2751775267
  H        19.5392718852       16.3592068123       -5.9650527681
  H        19.6256645580       17.8070666498       -4.9266143419
  C        17.6555848771       17.0245451515       -5.0948244620
  H         6.5289504186       13.2866813760        7.3841303304
  H         7.1364522097       14.8846398694        8.0073057878
  C         5.7867021541       13.7488143044        9.3143569023
  H        22.6465312095       16.5207172596       13.7758622330
  H        21.1185744847       17.1086245737       13.2440304379
  C        21.8445827099       17.8013307842       15.1167681546
  S        11.9979571909        9.0831811397       20.7991145615
  C        12.5825795439        6.4316560683       21.1767522276
  H        17.1057998552       17.3245411123       -4.2170657873
  H        17.2992119945       16.0164872876       -5.4591075112
  H        17.3592238888       17.7361432271       -5.8272376521
  H         6.0004448923       12.9155406686       10.0507212688
  H         5.6978928686       14.7519288010        9.6645459066
  H         4.9071085916       13.4270834382        8.6800600724
  H        20.9299792373       18.3634798296       15.3085418635
  H        22.1800618878       17.4339251375       16.1026012024
  H        22.6549370547       18.4560480456       14.7553046449
  C        11.7647716695        8.2238695655       22.3847396469
  N        12.0570225467        6.8751010035       22.3606546268
  O        12.8378793024        5.2825138560       20.8621351461
  S        11.2176513567        8.9558389907       23.9478612785
  C        11.8492980873        5.9952624636       23.5146675730
  H        11.7862100092        5.0564296027       23.0870883516
  H        10.9602986264        6.1559624485       24.0643873700
  C        13.0474133630        6.0038526591       24.4876450714
  H        13.4958580301        5.0141146498       24.6170421561
  H        12.8537364752        6.4627363147       25.4706525992
  H        13.9404848841        6.5802986990       23.9913580773
