352
 i =      500, time =      500.000, E =        54.0855155107
  H        12.0112789999        7.0190817709       32.3888004820
  C        11.5503495453        6.1895445389       32.5398268545
  H        12.2726251543        5.4981758294       32.2839979169
  C        10.3288400225        5.9550283058       31.5619220980
  C        11.2490200523        5.9432584709       33.9504171408
  C        10.8015213423        5.6246707391       30.1494684921
  H         9.8273805796        5.1434404081       31.9806766252
  H         9.6875333919        6.7354538978       31.6288057458
  H        10.4758784853        6.4478660877       34.4959302755
  H        10.9438436983        4.8741534545       34.1720162938
  H        12.1731654509        6.1829194442       34.6251015264
  C         9.6800646657        5.8731667682       29.1444740834
  H        11.2390100514        4.5272479666       30.1732986486
  H        11.7786181580        6.2174096334       29.9803805755
  C        10.2481007852        5.9625617463       27.6646619398
  H         9.0159152505        5.0788946937       29.1697054419
  H         9.1349141854        6.8024062245       29.2317086995
  C         9.4489356296        5.1523448194       26.6745893551
  H        11.2669801865        5.4502617434       27.6675377938
  H        10.5038749372        7.0184321919       27.3956266761
  C         8.0659774334        5.9372749450       26.4055509283
  H         9.8577799927        5.1935941788       25.6029310658
  H         9.0564191220        4.2138121462       26.8554777309
  C         7.0334635708        5.1260764271       25.5591570349
  H         7.5489588336        6.3176072503       27.2980731329
  H         8.4483457121        6.7767322062       25.8363604053
  C         6.6425933079        3.7922130127       26.2106506360
  C         7.5587364283        4.4164514199       24.3293269755
  C         5.6945950985        6.0293812797       25.3877982534
  C         6.9174026014        2.6877994679       25.3890931294
  C         6.1062272980        3.4587240071       27.4148519685
  C         7.4667849629        3.1015667344       24.1524060870
  C         7.9476515577        5.2136857927       23.2632227116
  H         5.8365120772        6.9956022540       24.8196968298
  H         5.4922316045        6.2892098106       26.4653197672
  C         4.5834747753        5.2533907400       24.6278952062
  S         6.5824234823        1.2336720797       26.2477310182
  C         6.0543139159        2.1362732547       27.6212658084
  H         5.8734103212        4.1161435080       28.1576851643
  C         8.0380229248        2.5176941416       23.0364784668
  H         7.8203537062        6.2212517820       23.2136115275
  C         8.5359246087        4.6277345877       22.1620999908
  H         4.8132921398        4.9298119192       23.5759925337
  H         4.3902906659        4.4319963273       25.3447019006
  C         3.2908937787        5.9327023861       24.6517273415
  C         5.6530871982        1.5012834548       28.8954329826
  C         8.5823562145        3.2748716815       21.9598202634
  H         8.1686575823        1.4830269348       23.0791897246
  C         9.0358668171        5.0673844263       20.9678998824
  H         2.4999018259        5.4802346563       23.9794234983
  H         3.5405664709        6.8911947265       24.1187317335
  C         2.5393219006        6.1136696494       26.0224818511
  C         5.7573254558        0.1630474106       29.2801719511
  C         5.1350203402        2.3019838414       29.9838649674
  C         9.2033391403        2.5524959636       20.7034216861
  C         9.4521404580        3.9932241755       20.1492760923
  S         9.2066896387        6.5282864558       20.1351336655
  H         1.8711890371        6.8290546242       25.8511531963
  H         3.2256407356        6.5228945671       26.7339472919
  C         1.8879987393        4.8626641178       26.6090270582
  N         6.3008675856       -0.7965977177       28.3333580023
  C         5.4593728855       -0.4219921519       30.4447545160
  C         4.7704488639        1.6923663535       31.1625265434
  H         4.9821091705        3.3466205228       29.9021875755
  C         8.1750156865        1.7319943937       19.9537345634
  C        10.3981350906        1.6788965269       20.9835540386
  C         9.9222494767        4.3618531599       18.9803048914
  C         9.7886830825        5.6143262724       18.7519170374
  H         1.2060771700        4.5781428712       25.9568493494
  H         2.5638275980        4.0670397416       26.7879906208
  C         1.1598374402        5.1383684005       27.9558902831
  S         6.1746764156       -2.2394730102       29.0429382533
  N         5.7752892972       -1.7884561234       30.5145204312
  C         5.0661761745        0.2267479911       31.5952259908
  H         4.4932448584        2.3120850097       31.9465931423
  H         7.7725819458        1.0845980724       20.5569403289
  H         8.4517368683        1.1614621741       19.1239529432
  C         7.0264367545        2.4669862519       19.4646875037
  H        10.8034433595        1.2168380092       20.0303006421
  H        10.2882276822        0.8911215958       21.6808822334
  C        11.5587827702        2.5325410120       21.4605987940
  H        10.1549156638        3.7008427683       18.1441546670
  C        10.1251912200        6.4492626748       17.4267431499
  H         0.3594309215        4.5039879364       28.1995227014
  H         0.6660162469        6.1558476227       27.8007105980
  C         2.1357788217        5.1686345774       29.0812005037
  C         4.9112947753       -0.4135459635       32.8882542370
  H         7.4003457798        3.2905974931       18.8502518990
  H         6.5825535269        2.9435201359       20.3290561411
  C         6.0307082351        1.6383347719       18.6891331409
  H        11.2120937723        3.1497212090       22.3915082363
  H        11.7390635556        3.2743092072       20.6404616891
  C        12.6269840973        1.6327301875       21.8397283245
  C        10.2822081742        7.7998466642       17.1771859259
  C        10.4019376557        5.5687108452       16.2259051370
  H         2.5747160766        4.2531860941       29.3532646324
  H         2.9470374247        5.8322728871       29.0536518826
  C         1.3760985530        5.7712578633       30.4098285540
  H         5.2265210594       -1.4731713588       33.0453869051
  C         4.6348536865        0.1301444747       34.0906562135
  H         5.6215141006        0.9905314669       19.3754982204
  H         6.4836609476        1.1546372144       17.9641406826
  C         4.9225429280        2.4990871452       18.0664078073
  H        12.3946606278        1.0725450811       22.7937653534
  H        13.0034750403        0.9449806027       21.0734238295
  C        13.8912353508        2.5419018596       22.1577207226
  N         9.9552766734        8.7297107479       18.1270553444
  C        10.4049056490        8.2787996613       15.9577013334
  C        10.8097642913        6.1856441241       15.0061580005
  H        10.4024882728        4.5192046587       16.2730428506
  H         2.1107680342        5.8159558387       31.2755325760
  H         0.9408726831        6.7346863132       30.0392564886
  H         0.5151090239        5.1093066343       30.6195663158
  S         4.3107707479        1.7647925918       34.5321123895
  C         4.6560445215       -0.8206945300       35.3067943129
  H         4.8607452487        3.3580676063       18.6432899310
  H         5.2022929366        2.7965223060       17.1078356565
  C         3.5426299917        1.8234694127       18.0111917805
  H        13.5718101277        3.2138554569       22.8566848996
  H        14.1089986232        3.0694063926       21.3514406867
  C        15.1205709196        1.7799282068       22.6458504899
  S         9.9058267176       10.2062127958       17.4651402105
  N        10.3675594492        9.7351480735       15.9567368407
  C        10.7016435323        7.6637288749       14.7591233118
  H        11.0703912481        5.5616216652       14.0960893061
  C         4.2538238271        1.1689709589       36.1194768904
  N         4.3054594611       -0.1360939336       36.3160811090
  O         4.8196826852       -2.0436848588       35.2184004200
  H         2.7611891314        2.4310906820       17.7727497501
  H         3.2446628747        1.5263571352       18.9627094072
  C         3.4324459851        0.4772405937       17.1499317644
  H        14.8595771222        0.9221355208       23.2878508164
  H        15.6168966763        1.3568715253       21.8240011639
  C        16.1889678476        2.6724074817       23.4239401983
  C        10.9008383032        8.3744955366       13.5991622049
  S         3.7016049379        2.2447248495       37.4926103553
  C         4.2355974105       -0.8105271065       37.6208615364
  H         3.1038445367        0.7327897787       16.1264684194
  H         4.4130487387        0.1047912240       17.0726151290
  C         2.3252373279       -0.3564044765       17.8251257097
  H        15.7347218919        2.6690220245       24.4094355194
  H        16.0442810086        3.7555431248       23.1517601158
  C        17.4913657966        1.9500601780       23.4590051692
  H        10.4436195965        9.3880636878       13.4972982698
  C        11.4140962255        7.9451784022       12.3155677336
  H         3.6187485032       -0.3794602448       38.3469735528
  H         3.7646923344       -1.8062768592       37.3502380662
  C         5.5821276371       -1.0754161524       38.1372201143
  H         1.5041091897        0.2336722893       18.2117407508
  H         2.7862000567       -0.7108126813       18.7250965446
  C         1.8167989675       -1.6205105223       17.0950160354
  H        17.9746729668        2.2342624486       24.2940943856
  H        17.3528654405        0.9751043566       23.4588547022
  C        18.3158610756        2.0992913064       22.1959491712
  S        12.0565870624        6.4490884156       11.8465420062
  C        11.5512206327        8.9705269489       11.2250526708
  H         5.9543958508       -1.9862247691       37.8497475471
  H         6.3454536703       -0.3543583973       37.8547978479
  H         5.6478368204       -1.1174753581       39.2160034596
  H         1.4067297028       -2.3305777333       17.7431003275
  H         2.5369064617       -2.1063371837       16.4501193333
  H         0.8835201976       -1.3391388084       16.5266869309
  H        18.3973742720        1.0939589381       21.6128385686
  H        19.2878014789        2.3982128694       22.6021508850
  H        17.8679967828        2.7886124237       21.4820304074
  C        12.4036611845        7.1284638628       10.3242700314
  N        12.1596038373        8.4638756103       10.1907464047
  O        11.1676594059       10.1341372110       11.3501911741
  S        12.8590623379        6.1664015670        8.8613786956
  C        12.3968235556        9.2026392907        8.9913758742
  H        12.5873728038       10.2276572531        9.4936549411
  H        13.3213278596        8.7102202287        8.4519225900
  C        11.2072808794        9.2179769131        8.0255293848
  H        10.3265625411        9.5923373643        8.4539573255
  H        11.1977844389        9.7217352112        7.1221229058
  H        11.0670509776        8.2012520771        7.7212824447
  H        21.4812082176       11.1900544917        3.7366259114
  C        21.7910243604       10.2858498934        3.8626506914
  H        21.0777183435        9.6832632190        3.8932563180
  C        22.6711933999       10.3827882609        5.1267855804
  C        22.6630902416        9.9555627811        2.5846679000
  C        21.9654632874       10.5438722418        6.4778652217
  H        23.3685881151        9.4743202842        5.1770126556
  H        23.2892570314       11.2100096915        5.0716146775
  H        21.9039276292        9.6963371813        1.8717165313
  H        23.3715590496        9.1742562760        2.8174714500
  H        23.1477514445       10.8253689451        2.2203499947
  C        21.0757477699        9.4126104913        6.8087311384
  H        22.7368157890       10.6757906820        7.2202445972
  H        21.3779675736       11.4343079171        6.2850690488
  C        20.3036296483        9.5851863727        8.1462929183
  H        21.6662145308        8.6039302319        6.8292201848
  H        20.3676161748        9.0804685607        6.0413647774
  C        19.0557260290       10.5560091254        8.0768964694
  H        20.9642660464       10.0078265512        8.9281095404
  H        19.9131832532        8.6885131372        8.6480495379
  C        17.8760713288        9.8021645822        7.5015940401
  H        18.9910769898       10.9723690461        9.0734599332
  H        19.3029324132       11.5406933690        7.6005736587
  C        16.6051371417       10.7314504255        7.1922422048
  H        17.5703048820        9.0856738710        8.2928465219
  H        18.1407388069        9.3166618253        6.4897945034
  C        16.9974704941       12.1013727650        6.5622938063
  C        16.2051022794       11.4472596923        8.5062458682
  C        15.5542296875        9.9420567401        6.4602500340
  C        16.8249993714       13.1839517604        7.4409511012
  C        17.4936559686       12.5251378769        5.4154915303
  C        16.3602670929       12.7965362386        8.7025814485
  C        15.8219697416       10.6511444237        9.5488737559
  H        16.1083556244        9.5238189482        5.5331794402
  H        15.2325285110        9.1042364556        6.9625558960
  C        14.2323613775       10.7807058960        6.1874981611
  S        17.2849442264       14.6620657509        6.6480448869
  C        17.6723954505       13.8624736776        5.2708498433
  H        17.5506130324       11.8001942338        4.5451385179
  C        15.9674018788       13.3835342203        9.8706827874
  H        15.8938485944        9.6424522937        9.5392251540
  C        15.4624356045       11.2490485667       10.7032067830
  H        14.4023953147       11.8462585288        5.9043513882
  H        13.6606870062       10.8919344029        7.0723454098
  C        13.2987026469       10.0425556034        5.2074853480
  C        18.1587475093       14.6299550310        4.0458001108
  C        15.4738181538       12.6064383959       10.9080847990
  H        16.0267630341       14.4447934753        9.9303323000
  C        14.9180318356       10.8895731860       11.9123502274
  H        12.3787573187       10.5884253372        5.1471147006
  H        13.0804965033        9.0543620882        5.4814083388
  C        13.8752706687       10.0114283503        3.7921596977
  C        18.1345357525       15.9893043668        3.7666050034
  C        18.6550124188       13.7829347374        2.9562784800
  C        14.9760410082       13.3237357675       12.1881771344
  C        14.6537129953       11.9222200398       12.7920388512
  S        14.6082060410        9.4431720596       12.7766062254
  H        14.7057765726        9.2682475615        3.5848018935
  H        14.2593940631       10.9922710247        3.5055903327
  C        12.8484513186        9.7473141371        2.7119925271
  N        17.6987739750       16.9479238511        4.6448714527
  C        18.2898856734       16.4706228542        2.4739732876
  C        18.9615175569       14.3270382506        1.7269070839
  H        18.8042404240       12.7370491808        3.1414297069
  C        13.7671227542       14.2649623223       11.9916349891
  C        16.1323360665       14.0433634316       12.9357797147
  C        14.2091188032       11.6177291942       14.0512934394
  C        14.2010736372       10.2741286991       14.2097515520
  H        12.4797143693        8.7244148893        2.7859923461
  H        12.0363858244       10.4309730823        2.9209898200
  C        13.4276764964       10.0127364458        1.3313416990
  S        17.8197745312       18.3850129748        3.8605976809
  N        18.1414030611       17.9120729713        2.3483931604
  C        18.7087583549       15.7895271971        1.3733536838
  H        19.3109216870       13.6566372819        0.9447270276
  H        13.8839384319       15.0353545209       11.2040680734
  H        13.4026412091       14.8044697984       12.9102265229
  C        12.5511886649       13.5133600446       11.6869444800
  H        16.4725491575       14.7197797908       12.3535356885
  H        15.8204392327       14.5107949167       13.7569398083
  C        17.2477827434       13.0929323591       13.3129283980
  H        14.0614143992       12.3521619808       14.7092288605
  C        14.0485993673        9.4566883016       15.5086132850
  H        14.2862581231        9.2711054100        1.1565820746
  H        13.7489714245       11.1242280368        1.2163155372
  C        12.5212964061        9.7349536456        0.0556381392
  C        18.9232666933       16.4320789503        0.0705182867
  H        12.8019865480       12.6233934190       10.9406753045
  H        12.3409144909       12.7664290253       12.5535539770
  C        11.4338116666       14.4245566178       11.2190728186
  H        17.7292454910       12.5015809623       12.4037051088
  H        16.9957029413       12.3160993772       14.1155944851
  C        18.3834876918       13.8993526875       14.0183363998
  C        13.9442506283        8.0990112172       15.6623799663
  C        13.9225051969       10.2861901041       16.7679544443
  H        12.3905168353        8.5815427578        0.1368639116
  H        11.5040106604       10.2434887822        0.3977799527
  C        13.0268427720       10.3059716170       -1.1617504173
  H        18.8068542705       17.5992349899        0.0903883215
  C        19.1937398321       15.9100012452       -1.2027613038
  H        11.6961175106       15.0251703139       10.3090199639
  H        11.0729469841       15.0445528419       12.0201168276
  C        10.2467864727       13.5668912175       10.8134760066
  H        18.7714961119       14.4802326391       13.2348753570
  H        17.9832893625       14.5323313805       14.7771766092
  C        19.3620133553       12.9134323698       14.6141484777
  N        14.1253765932        7.2121671166       14.7192740120
  C        13.8796557886        7.6073940785       16.8867222637
  C        13.6750258402        9.6802773760       17.9358051860
  H        13.9051039317       11.3265540702       16.6600442513
  H        12.4181661820       10.1228067963       -2.0487173571
  H        13.9915600843        9.8679882474       -1.4279038392
  H        13.1558434172       11.3213452509       -1.1460762174
  S        19.3438213675       14.3279170659       -1.6446417287
  C        19.3046192721       16.9404911192       -2.3436163661
  H        10.8427435765       12.7978536396       10.4231428753
  H         9.6960335956       13.3363505716       11.6606104354
  C         9.4004028953       14.1643093156        9.7655282181
  H        19.2976176414       11.9854186179       14.1422032520
  H        19.0955406896       12.6890294792       15.5796519298
  C        20.8261711152       13.3942678682       14.3360334333
  S        14.2057724928        5.7062875271       15.3258805490
  N        13.8732885900        6.1738400611       16.8300692195
  C        13.5033027554        8.2020902419       18.0641745983
  H        13.5136952736       10.2754409824       18.8091932497
  C        19.7437899558       15.0301696458       -3.1964565457
  N        19.6823739154       16.2972203408       -3.3924980299
  O        19.1788879586       18.2092992836       -2.1534079447
  H         9.0221709753       15.1131934072       10.0195493778
  H         9.9487406250       14.4468610973        8.8507221777
  C         8.3406021799       13.1796800759        9.2780606927
  H        21.5029287798       12.6432461225       14.8497241162
  H        20.9553285077       13.5557695034       13.1620359710
  C        21.0836309960       14.8254171445       15.0195466215
  C        13.2301146155        7.5056511980       19.2528054873
  S        20.1644984074       14.0279914878       -4.5978592284
  C        19.7965058067       17.0485313448       -4.6482736673
  H         8.7258477919       12.4375970834        8.3830202235
  H         8.0500837905       12.6530814365       10.1886827015
  C         7.1175151147       13.9106577920        8.7468318515
  H        21.6341781964       14.4260725175       15.9316298668
  H        20.0849758327       15.1622782554       15.3400021976
  C        21.8560571820       15.6924890137       14.1537018784
  H        13.7901933311        6.5513048601       19.2118628672
  C        12.5767828632        7.8738883513       20.4299906406
  H        20.4556436244       16.6900381616       -5.3770136930
  H        20.1003170759       18.0302107034       -4.2529025292
  C        18.4011619401       17.2940682101       -5.2510552966
  H         6.5123025996       13.1723636935        8.1662246144
  H         7.3258323034       14.6862497374        8.1678914470
  C         6.1326916030       14.3259113629        9.8471094491
  H        22.8044819113       15.2746164096       13.9220942741
  H        21.3753537777       16.0581451038       13.2541387985
  C        22.1630228348       16.9744829088       14.9833507341
  S        12.1133722903        9.5053107507       20.8853748899
  C        12.3525806606        6.8338086090       21.5204188162
  H        18.3288649273       18.2652157302       -5.6393409567
  H        17.6974419067       17.3773586917       -4.4325704131
  H        18.2764360380       16.5437370864       -5.9880205578
  H         5.3059387842       14.8582113228        9.5133121270
  H         5.6858739583       13.5790479442       10.5249234397
  H         6.4473446037       15.1039397157       10.5577102014
  H        22.8858565367       17.4280880115       14.4294539736
  H        21.3219191179       17.5362570771       15.0298174395
  H        22.5615100971       16.6813905939       15.8588351677
  C        11.6254531851        8.7763400825       22.3864749902
  N        11.8607923921        7.4451962981       22.5410942730
  O        12.7456853743        5.6621783711       21.4032404735
  S        11.0171726690        9.5585043177       23.8738864105
  C        11.4570337552        6.6613670528       23.7562505215
  H        11.0702889191        5.8157875918       23.3391589910
  H        10.6694185206        6.8718272759       24.3566553273
  C        12.6009756864        6.5132857298       24.7773861556
  H        13.4254737684        5.9312085136       24.2877102638
  H        12.2362579937        5.7434989294       25.5189085070
  H        13.1024202966        7.4518579065       25.1531001650
