352
 i =    69700, time =    69700.000, E =        25.3484276086
  H        11.7810387432        4.2272089217       32.1118072430
  C        11.0343587885        4.9462594985       32.2451621434
  H        10.1012233617        4.5604424242       31.9179427694
  C        11.3792532353        6.0988401294       31.2526792337
  C        11.0207361740        5.3966669102       33.7012495510
  C        12.2052064062        5.5563489734       30.0848471618
  H        10.5666238533        6.7213175188       30.8370849272
  H        12.0963477915        6.7712633756       31.7288198693
  H        10.7474314891        4.4774361113       34.2502877924
  H        12.0575821780        5.6892325867       33.8793487688
  H        10.3168266822        6.1732277809       33.9944416509
  C        11.4075681619        4.5206900539       29.1922501766
  H        13.0262544006        4.9760025000       30.5332415587
  H        12.6386237920        6.5254096210       29.5696553557
  C        10.6810292614        5.3118450337       28.1055141323
  H        12.0271084745        3.6668002018       28.8819135223
  H        10.5898809898        4.1076241023       29.8003209917
  C         9.7833806369        4.5844739363       27.1134470090
  H        11.3946889415        5.9409478920       27.4844921675
  H        10.0403601877        6.0079081562       28.6419429449
  C         8.6138134139        5.3912025238       26.6475440126
  H        10.4108753853        4.2760219523       26.2631808344
  H         9.5132767820        3.6684051560       27.4838607563
  C         7.5867480032        4.6932658221       25.6455464851
  H         8.0358384625        5.7150596149       27.5435467369
  H         8.9782296022        6.3176594390       26.1971893644
  C         7.1259912193        3.2613143111       26.2964880659
  C         8.0398436511        3.9753013715       24.3886688639
  C         6.4313582214        5.5269270116       25.2020926252
  C         7.4210503809        2.2006861797       25.4648194011
  C         6.5780063556        2.8733642009       27.5395299816
  C         7.8874349351        2.6324057826       24.2542988540
  C         8.5250494141        4.6531944344       23.2728338012
  H         6.0121726640        5.0670977554       24.3404547183
  H         6.8476595304        6.3995624122       24.8673581513
  C         5.3693800472        5.8685289527       26.1547256527
  S         7.0459755320        0.7163588689       26.2025000935
  C         6.5552760706        1.4624280015       27.6562890645
  H         6.2384357384        3.6316351009       28.2178338987
  C         8.3150596275        2.0285905483       23.0705894178
  H         8.6321481896        5.7235512501       23.2635195910
  C         8.8293888252        4.0764037806       22.0755183460
  H         5.1826399767        5.1406335912       26.8718233284
  H         5.5697085848        6.6775880463       26.7621408467
  C         4.1190260528        6.0664009442       25.4240423362
  C         6.2122429983        0.6731759228       28.9371021993
  C         8.8794932623        2.7209320461       22.0049470623
  H         8.0988799936        0.9919330751       22.9174489945
  C         9.2218884074        4.4513551320       20.8096424257
  H         4.0434956785        5.2816126404       24.6347213814
  H         4.0924143277        6.9909925211       24.8201372422
  C         2.8674383053        6.0894143666       26.2298686247
  C         6.3685084860       -0.6861976964       29.1830810669
  C         5.7710737301        1.5117474165       30.0973370964
  C         9.1968388111        2.0400802320       20.6944988846
  C         9.4670511567        3.3174726531       20.0417011190
  S         9.3632059658        5.9926046938       19.9837093915
  H         1.9787228527        6.4341045106       25.7154042251
  H         2.9246366303        6.7307763649       27.0859935059
  C         2.4668114950        4.6734454358       26.7289778513
  N         6.8024368153       -1.5997580910       28.1960041991
  C         6.0295267835       -1.2323440217       30.4228656542
  C         5.5518619225        0.9631124054       31.3563778481
  H         5.7215553410        2.5987999971       30.0925053062
  C         7.9269866345        1.3133057889       20.1021658347
  C        10.4683899789        1.1468702138       20.8074856388
  C         9.7458370701        3.7701900463       18.7127705806
  C         9.7663729982        5.1336111823       18.5640573479
  H         1.6604091378        4.3086508489       26.0811224233
  H         3.2246909161        4.0324690404       26.6466621312
  C         1.7601910903        4.9026445849       28.0875323486
  S         6.7452189778       -3.0493829300       28.9361375317
  N         6.2401541665       -2.6022549785       30.3955930442
  C         5.7098243947       -0.4972635222       31.5609080554
  H         5.2617961374        1.6172884547       32.1414409323
  H         7.6203195661        0.3565991406       20.6080525052
  H         8.1677875659        1.1403626879       19.0135915937
  C         6.6944477682        2.2887379567       19.9585031742
  H        10.9016719835        0.7287346072       19.8269824435
  H        10.2746139000        0.1690883773       21.2901217986
  C        11.6130917471        1.9905887695       21.4374988249
  H         9.7966267011        2.9662127668       18.0453686339
  C        10.0757517515        5.7991611713       17.2684064471
  H         0.9396902209        4.1755151415       28.2905793889
  H         1.2434945430        5.8530146091       28.1842139229
  C         2.8214973264        4.8758236350       29.1093417178
  C         5.5792452181       -1.1788079588       32.8023847147
  H         6.8027322788        2.9254725580       19.0537555724
  H         6.5178427599        3.0122203873       20.6787911276
  C         5.3808358997        1.5552356443       19.5979199839
  H        11.4256435030        2.3017603431       22.4491005575
  H        11.8175674134        2.8850524963       20.8329359039
  C        12.9761794539        1.3064755959       21.5944586712
  C        10.1023905482        7.1665638967       17.0462451888
  C        10.3653111676        4.9178348133       16.1045851501
  H         3.3938497588        3.9831475275       29.0704122162
  H         3.6390805301        5.6165506167       29.0685979239
  C         2.2611752769        4.9975512685       30.4711135218
  H         6.0033797162       -2.1610291793       32.8188028869
  C         5.1391505257       -0.7307067655       34.0065458025
  H         4.5606944211        2.1670752768       19.8030225275
  H         5.4042496678        0.8651295749       20.3679053953
  C         5.4086330226        0.9266669013       18.1630029774
  H        12.9075725168        0.3875388486       22.1679591535
  H        13.3742962380        0.9926464293       20.6359174155
  C        13.8512704882        2.2398809503       22.3863173016
  N         9.9005977385        8.1594058155       18.0591871369
  C        10.3633506179        7.7298135808       15.8207293934
  C        10.7144617715        5.5623695726       14.8699588669
  H        10.3085419487        3.8926420238       16.2557508246
  H         1.8496960864        6.0141479693       30.5372212013
  H         1.5409917288        4.2513986125       30.5491201123
  H         3.0327995417        4.7531355060       31.1475768008
  S         4.6835543586        0.8852108179       34.4487003554
  C         5.1322383023       -1.6838352237       35.1571287938
  H         5.7707232381        1.5523705589       17.3625003276
  H         6.2197736262        0.2182597859       18.2000157038
  C         4.0017937170        0.4055632569       17.8096523973
  H        13.2988326265        2.7280114889       23.1500346231
  H        14.1895383473        3.0151275592       21.6837742437
  C        15.0411037520        1.5592732841       23.0023741897
  S        10.2156068911        9.6351097797       17.4208788795
  N        10.5289075621        9.1330880001       15.9065209055
  C        10.7579699879        7.0370402104       14.7009648587
  H        10.9635484230        4.8743014243       14.0916129278
  C         4.3451974322        0.1951686838       36.0508608365
  N         4.6809227751       -1.0790610750       36.2703238213
  O         5.3357088727       -2.9215262559       35.0556684021
  H         3.8255010301        0.1264920285       16.7705340916
  H         3.4137197835        1.2898932224       17.7309461305
  C         3.3650191780       -0.5505728453       18.8902378143
  H        14.7066331461        0.8821521349       23.8094276248
  H        15.5592056271        0.9010436784       22.3497879229
  C        16.0326345741        2.5783843633       23.6306371129
  C        11.2378838491        7.7741816990       13.5507667327
  S         3.9055691584        1.2206415200       37.3769194571
  C         4.6107968832       -1.7374842533       37.5747427275
  H         3.8933248500       -0.5841231194       19.9133698052
  H         2.3764736865       -0.1583760599       19.2365001799
  C         3.3061478989       -2.0416008206       18.4726215791
  H        15.5235123839        3.0098891050       24.4532350862
  H        16.4536980205        3.3445315101       22.9261602513
  C        17.2738379881        1.8096678591       24.1423685966
  H        11.2951571203        8.8381591617       13.6202690976
  C        11.6134664960        7.4126319235       12.2920752466
  H         3.8691951323       -1.3891745374       38.3807888265
  H         4.1828450569       -2.7763438595       37.5031044635
  C         5.9838853464       -1.6309761771       38.2541694450
  H         3.1783086322       -2.7108581062       19.2804594683
  H         4.2599121784       -2.2511824287       18.0526089955
  C         2.3399928127       -2.3371467887       17.3484082387
  H        17.6621643700        2.0438060956       25.1422404910
  H        17.0819270849        0.7867179464       24.2244023915
  C        18.4393293470        2.0198367291       23.1463347258
  S        11.9733084301        5.8094515340       11.7477435419
  C        11.8532262301        8.4862573249       11.2787230916
  H         6.0585689367       -0.6667621411       38.7305072674
  H         6.1504572405       -2.4764121879       38.9504717578
  H         6.7535801933       -1.7166385999       37.4918033976
  H         2.3558622882       -1.6860177111       16.5262220208
  H         1.2708249704       -2.2695258712       17.5051276913
  H         2.6671163327       -3.2783855847       16.8666085071
  H        18.9319713403        2.9226950444       23.2463379446
  H        18.0664811682        1.9852467547       22.1579082680
  H        19.1653362500        1.2068804740       23.1824445254
  C        12.4678601036        6.5974979144       10.2113659400
  N        12.3045356306        7.9584404296       10.1279944083
  O        11.6605068756        9.6909011954       11.5011563917
  S        12.9983127834        5.7939032302        8.7725807654
  C        12.5056012952        8.8704262561        9.0306923502
  H        12.9595645597        9.7552147298        9.3380222615
  H        13.0847292442        8.4334593092        8.3035364272
  C        11.1033773804        9.3769506809        8.5057059984
  H        10.7231704761        8.6378768917        7.7508119580
  H        10.3640026172        9.3829338150        9.2450882878
  H        11.2080331937       10.2996789253        8.0689352005
  H        22.1642334020        8.8461593876        3.1499424150
  C        23.0071577944        9.4778158871        3.1516520517
  H        23.8246791410        8.7638335896        3.1751191469
  C        23.0250817799       10.4307331531        4.3602646924
  C        23.0430064403       10.1101963970        1.7275598591
  C        21.6779834300       10.3596893404        5.1547937068
  H        23.8711996889       10.1443654775        4.9534435922
  H        23.2661433504       11.4430413652        4.0924812108
  H        23.7972110368       10.7672884842        1.4684975582
  H        22.1265788534       10.6293093060        1.6380691044
  H        23.0264805859        9.3321047057        0.9816584996
  C        21.4709587605        8.9977428771        5.8897944556
  H        21.7238338662       11.1228010602        5.9133264783
  H        20.7265474295       10.6465695698        4.6566519701
  C        20.9142455473        9.1859887707        7.2909200256
  H        22.4204280966        8.4481201051        5.9137340593
  H        20.7999639785        8.3073596829        5.3232620901
  C        19.6605054892        9.9356461749        7.4278414199
  H        21.6645400613        9.7437607919        7.8791000428
  H        20.9366470001        8.3129883755        7.8839260913
  C        18.4420651698        9.2604589948        6.8368174050
  H        19.5587825846       10.0286656533        8.4983342615
  H        19.6556791901       10.8846016346        7.0014464132
  C        17.2144832296       10.2516704289        6.8008457553
  H        18.2146334754        8.3883245090        7.4092049495
  H        18.5792643303        8.9242725925        5.8372951212
  C        17.4800057303       11.6078298549        6.0520085643
  C        16.8410567561       11.0438272496        8.0467416453
  C        15.9741945447        9.4920847071        6.2698542053
  C        17.2849989704       12.7552036577        6.8275684875
  C        17.9285635798       11.9998605955        4.7594657619
  C        16.9136499671       12.3931740017        8.1228857638
  C        16.3868317799       10.3408841669        9.1312454162
  H        16.1737267605        9.1626088288        5.2328926220
  H        15.8618481996        8.5523072515        6.8664995438
  C        14.6627467830       10.3313134629        6.2662075363
  S        17.7327534587       14.2160544226        6.1080997112
  C        18.1106018716       13.3304529447        4.6800650081
  H        17.9410018909       11.3398691926        3.9545655909
  C        16.5432203170       13.0129675795        9.2545204055
  H        16.4791867752        9.2440389422        9.0545065741
  C        16.0158399675       10.9629501230       10.3255448117
  H        14.7854965565       11.3374439460        5.8597101268
  H        14.2095424669       10.5316814621        7.2825192926
  C        13.5826462561        9.6541597249        5.4299629191
  C        18.4295070468       14.0655020152        3.4766014989
  C        15.9868062051       12.3281355332       10.3688238804
  H        16.5208703116       14.0535851393        9.3138756531
  C        15.5491446037       10.5743131105       11.5200919395
  H        12.7291098705       10.1777367995        5.6216469879
  H        13.4502026961        8.6271679782        5.7111219036
  C        13.9057971434        9.6696701474        3.9461766236
  C        18.2896110210       15.4834446955        3.2610366639
  C        18.8105244736       13.2524618551        2.2837697472
  C        15.4392327514       12.9678835532       11.5860136735
  C        15.2039355354       11.6111515430       12.2768604010
  S        15.1972494783        9.0358978339       12.2422496761
  H        14.5840078799        8.8470236731        3.6116498838
  H        14.4384492868       10.5755233101        3.5782726960
  C        12.6344515440        9.6500043043        3.1402840236
  N        17.9530031514       16.4290770922        4.2228234325
  C        18.6206905149       16.0610034307        2.0412929396
  C        19.2411891038       13.9225794469        1.1966176646
  H        18.9402774730       12.1837242702        2.3460602130
  C        14.1628855779       13.7846001794       11.2617642444
  C        16.4497318411       13.8595393300       12.3966934582
  C        14.7262029499       11.1743232101       13.5161393436
  C        14.6961984943        9.8062820851       13.6737524362
  H        11.7589933033        9.3506037952        3.7571135879
  H        12.3163763514       10.6841819144        2.8886348183
  C        12.7710578368        8.9360951716        1.7728552547
  S        18.1125153708       17.9203590428        3.5025795185
  N        18.4144026540       17.4144793009        2.0074907014
  C        18.9936537550       15.3244038525        0.9356542818
  H        19.7945981649       13.3835585467        0.4845961294
  H        14.4205304455       14.4744980862       10.4396733741
  H        13.8955645326       14.4179399907       12.1011906693
  C        12.9151210453       12.8886800491       11.0490615543
  H        16.6246410183       14.7830555412       11.8600020480
  H        15.8846906989       14.0210308975       13.2976158414
  C        17.7620710688       13.1615370531       12.8056387855
  H        14.3014571934       11.8894855403       14.1378807331
  C        14.2381945557        9.0585170424       14.9394544494
  H        11.7716605413        8.7443441425        1.3374486951
  H        13.1214015718        7.9031595105        1.8848785885
  C        13.6637220505        9.7529236184        0.7382202097
  C        19.1119701190       16.0356337487       -0.3027164006
  H        13.0064345046       12.1611542471       10.2519382495
  H        12.5267905524       12.3907481113       11.9398306032
  C        11.6336860584       13.6766516025       10.8306947514
  H        18.2472734894       12.7400376130       11.9847756467
  H        17.6131097873       12.3311515068       13.4909984411
  C        18.7419099168       14.1727180109       13.3266774332
  C        14.0970470147        7.6940840109       15.0828015203
  C        14.0933049501        9.7888845475       16.2488691686
  H        14.1523535638       10.5649007518        1.2831434454
  H        14.5048297625        9.2535610897        0.2744135473
  C        12.8313068529       10.4902234856       -0.4157810968
  H        18.7750077962       17.0561087389       -0.2800039759
  C        19.4197122315       15.5777808055       -1.5950439335
  H        11.8665086031       14.3063012427       10.0212659775
  H        11.5032917578       14.3324950897       11.6586799267
  C        10.4254778361       12.7210272451       10.5810789596
  H        18.9327113517       14.8152529472       12.5029240447
  H        18.3099921646       14.8106025320       14.0743900011
  C        20.1036838418       13.4443414049       13.6751499529
  N        14.1782764438        6.7997393170       13.9926893647
  C        13.8690714426        7.0334788410       16.2836951593
  C        13.7049462160        9.1851648683       17.4142320967
  H        14.2462464315       10.8533004839       16.2713352396
  H        13.4112782913       11.3672989006       -0.7576626716
  H        11.7999188898       10.5462235608       -0.0918905428
  H        12.9457837804        9.9180924516       -1.3067045194
  S        19.7767608246       13.9676570480       -2.0816636365
  C        19.4166499520       16.5832112201       -2.6959791260
  H        10.6623792146       11.9295704472        9.8960174383
  H        10.0739684730       12.2759340403       11.5393615892
  C         9.3839150276       13.5729674034        9.9913494253
  H        20.4674903268       13.1070876651       12.7007258357
  H        19.8279415081       12.5265953782       14.2335421620
  C        21.0562566314       14.3275186745       14.4208030976
  S        14.1146398999        5.3100988247       14.6451982261
  N        13.8694989402        5.6272074315       16.2085015295
  C        13.5628274377        7.7399580539       17.4778897463
  H        13.6413995300        9.7997724749       18.3288049465
  C        20.1341021203       14.7047403491       -3.7005257843
  N        19.9416462634       16.0452136329       -3.7263820594
  O        19.2655877175       17.7455635557       -2.5340250808
  H         9.0994051210       14.3845566641       10.7063213207
  H         9.9176377430       14.2068934111        9.2135848162
  C         8.1780256036       12.8508078382        9.3630264548
  H        20.5626579616       14.5268089576       15.4121429792
  H        21.9979916886       13.7228546743       14.4265678525
  C        21.2165701124       15.6795523964       13.7064870569
  C        13.2955817895        6.9583787326       18.6452127636
  S        20.6179579376       13.7199763775       -5.0875406805
  C        20.0188841000       16.7675654855       -4.9891390660
  H         8.5195974089       12.1698169703        8.6244035353
  H         7.7431213515       12.1777740122       10.1564146111
  C         7.0300329363       13.6634112717        8.8968248156
  H        20.2181664001       16.1506634377       13.7402378687
  H        21.3476066280       15.4039069504       12.7151250762
  C        22.3631506878       16.7057526573       14.0145446718
  H        13.5652176200        5.9353658675       18.6541382000
  C        12.8618669254        7.2529625253       19.9335213616
  H        20.7302305000       16.2956642419       -5.6402279110
  H        20.2465787997       17.8531725109       -4.8229840842
  C        18.6126872272       16.8059708005       -5.7637407496
  H         6.4625287936       13.0176826788        8.3070734759
  H         7.3293757833       14.4772975636        8.2302684502
  C         6.2278726502       14.0898816406       10.0554220050
  H        23.2706998235       16.1706620756       14.2588572090
  H        22.6302183065       17.3072637642       13.1315174034
  C        22.0659398077       17.5046680917       15.2863179305
  S        12.3350745550        8.8409700679       20.5243595630
  C        12.6627449156        6.2104017916       20.9539815920
  H        18.6576999128       16.7322865824       -6.8354413584
  H        17.9322285314       17.6607998426       -5.4792796038
  H        18.0874096656       15.8882995885       -5.5555740718
  H         6.0082071228       13.3914030826       10.8975498367
  H         6.7646876090       14.8621787520       10.5751048386
  H         5.2539505647       14.5104999333        9.6668638655
  H        22.5439913980       18.5111535033       15.1846350787
  H        21.0546669791       17.5494896006       15.5450702275
  H        22.6537312489       17.0597449771       16.1584322272
  C        12.1400451248        8.0448211967       22.0917275695
  N        12.1953402248        6.7000406937       22.0854662162
  O        12.8165398664        4.9982529513       20.7527835599
  S        11.6657111391        8.9187064195       23.5974578692
  C        12.2417949128        5.8808314795       23.3113442804
  H        12.0648647301        4.8759652130       23.0297509138
  H        11.3984587054        6.1769806842       23.9925126859
  C        13.6254816517        5.8498193233       23.9627945883
  H        13.7516767812        6.3441085889       24.9263098041
  H        14.3985039918        6.3095273052       23.3113622298
  H        13.8227580461        4.7580881978       24.0424787840
