352
 i =    70100, time =    70100.000, E =        25.2104074261
  H        12.9844636655        5.3097744519       31.7520487451
  C        12.0341940163        5.4242675185       31.2006956330
  H        11.6299086149        4.4620674541       30.9861804278
  C        12.3532346656        6.1999616376       29.8983424279
  C        10.9604542204        6.2593046599       31.9469980829
  C        12.7604163299        5.3101079705       28.7150542185
  H        11.4850067648        6.7692568174       29.5526745323
  H        12.9950009470        7.0808149396       30.0530405735
  H        10.6189625845        5.7359351619       32.8387914179
  H        11.4642640202        7.2335375459       32.0497595761
  H        10.1844609315        6.5386480724       31.2189195366
  C        11.6710345506        4.5161992482       28.0030554390
  H        13.5540454724        4.6548475625       29.1845087226
  H        13.2461114354        5.9471001502       28.0762142278
  C        10.7686045777        5.4252722028       27.1766616902
  H        12.1359572605        3.8192990293       27.3573978396
  H        11.1448434287        3.8398018998       28.6860300201
  C         9.8209472194        4.5942061861       26.3378269005
  H        11.3282517801        6.0486269828       26.5352877740
  H        10.2037396150        6.0323112648       27.8703849242
  C         8.5927463355        5.5145730716       26.0405613003
  H        10.2745074486        4.3986364439       25.4096168397
  H         9.5676924954        3.6426837619       26.9367030490
  C         7.5812087379        4.7270968474       25.4155709738
  H         8.2138207954        5.7568942463       27.0008111466
  H         8.7877659156        6.4337425799       25.4520427876
  C         7.3591628394        3.3458091191       26.0884789384
  C         8.0675577596        4.0230460291       24.1627615932
  C         6.2590035071        5.5282659499       25.1087820808
  C         7.5984178705        2.2543174043       25.2814098530
  C         6.8620685159        2.9144058624       27.2918904119
  C         8.0887316939        2.6529850269       24.0674447548
  C         8.4925884073        4.7390471865       23.0422263162
  H         5.6943168289        4.8040672995       24.5284239659
  H         6.4345245331        6.4168596689       24.5094023601
  C         5.3609262742        6.0093733340       26.2431378454
  S         7.1219748450        0.7347731447       26.0113110096
  C         6.8138006089        1.5855242192       27.4738567895
  H         6.6909814104        3.7304882338       27.9736895643
  C         8.4549137317        2.1226730653       22.8616606915
  H         8.5102210513        5.8099012345       23.2271659104
  C         8.8978283839        4.2279961649       21.8692599898
  H         5.1445055399        5.1207410197       26.8523236419
  H         5.8640562097        6.8355035681       26.7579731054
  C         4.0181071616        6.4880691846       25.6980834307
  C         6.2784235993        0.9529391370       28.7033942205
  C         8.8379651551        2.8802612904       21.7252066332
  H         8.2720422519        1.0851427854       22.6472693614
  C         9.2968192190        4.7069844631       20.6037947822
  H         3.7552604759        5.7828320436       24.9793703037
  H         4.1138878627        7.4312932431       25.2054515183
  C         2.8422342618        6.4798356194       26.7167298143
  C         6.3031793206       -0.4679488571       28.9804714609
  C         5.7151770417        1.8014133220       29.7997498989
  C         9.2081212639        2.2644376117       20.4420252213
  C         9.4764017842        3.6409961086       19.7724322585
  S         9.5523085492        6.2044980835       19.7810550045
  H         2.1088460726        7.2030378255       26.2335961023
  H         3.1944424654        6.9149379802       27.6862824105
  C         2.2600664587        5.0716379994       26.9777623412
  N         6.7380228758       -1.4854796845       28.0701530445
  C         5.9126512232       -1.0305396864       30.1503822970
  C         5.4340389730        1.2521344432       31.0525792903
  H         5.6145708592        2.8806631325       29.7002068971
  C         8.0634890739        1.6419898357       19.7071370022
  C        10.6069191168        1.4634865737       20.4394862112
  C         9.8502803027        3.9534039625       18.4744168592
  C         9.9754122382        5.3128099423       18.3420466009
  H         1.5893437592        4.9793124818       26.1235417373
  H         2.9438878413        4.1849613419       26.8661865550
  C         1.6497570884        4.9247354904       28.2624922530
  S         6.7483236956       -2.9166946762       28.8375988477
  N         5.9812147958       -2.4273169498       30.2148354483
  C         5.4164635404       -0.2404202666       31.2278369472
  H         5.2088097338        1.8969210659       31.9379443334
  H         7.6357691872        0.6890048651       20.0974954830
  H         8.5657381929        1.1090746689       18.8869068123
  C         7.0084501224        2.6827012352       19.2622232636
  H        10.7292291506        0.8976824480       19.5423067226
  H        10.3029457631        0.6359622245       21.0918626852
  C        11.7754928805        2.1545196184       21.0705804189
  H         9.9687614175        3.2113854030       17.6800582513
  C        10.3678944788        5.9107596579       16.9662224096
  H         0.9526693955        4.1625531109       28.1825845361
  H         1.0735449761        5.8375442455       28.3852358509
  C         2.6556784614        4.9131645505       29.4754078421
  C         5.1835082315       -0.9928971384       32.4802056702
  H         7.2979673830        3.2940614595       18.4180241805
  H         6.9444144287        3.4493960021       20.0901375553
  C         5.5880061035        2.1729313723       19.0317092408
  H        11.4125996290        2.6400138152       22.0142332317
  H        11.9524701309        2.9683987630       20.3862106560
  C        12.9480161530        1.2419095900       21.3587968653
  C        10.4327300962        7.2995677575       16.7413400390
  C        10.4591179969        5.1153212296       15.7663122427
  H         3.2400291358        4.0151402829       29.3902605259
  H         3.3401515507        5.6644589644       29.2567277778
  C         1.8533718015        5.1373155558       30.8132722056
  H         5.3156086112       -2.0590748916       32.4436441879
  C         4.9033667058       -0.5312471229       33.7521713338
  H         4.8817440559        3.0024322802       18.9415117836
  H         5.3871895385        1.5054347864       19.7889226612
  C         5.4027217422        1.2943071150       17.7657051627
  H        12.7167665791        0.4241659350       21.9707266960
  H        13.3724316826        0.8513860145       20.3621844421
  C        14.1105118128        2.0543564724       21.9526347354
  N        10.3370291228        8.2319548043       17.7661643791
  C        10.6675293184        7.9444447785       15.4998943131
  C        10.7272899128        5.6995338100       14.5052515066
  H        10.4504612207        4.0613718550       15.8301387484
  H         1.5432436180        6.2317470789       30.9341602467
  H         1.0218403451        4.5080812188       30.9607237143
  H         2.5823462566        4.9681528449       31.5163558156
  S         4.8017360752        1.0961653703       34.3047263111
  C         4.7369726055       -1.5825321657       34.7805419149
  H         5.8728495581        1.6797111990       16.9126654321
  H         5.9283661916        0.4150664406       17.9585914986
  C         3.9512539577        0.8554495884       17.6454223406
  H        13.7143887336        2.5459760487       22.8851052260
  H        14.5349415518        2.7795171113       21.2589334125
  C        15.3413737711        1.2730174058       22.4012993907
  S        10.2352748091        9.7596750107       17.0726430296
  N        10.6001743499        9.3388373740       15.5586909203
  C        10.9508671721        7.1813476478       14.3866127324
  H        10.9133388115        5.0860430537       13.5975385978
  C         4.4949466852        0.2838832027       35.9076372663
  N         4.5258153726       -1.0345160451       35.9268231403
  O         4.8075401878       -2.7987310631       34.5348731057
  H         3.7990524225        0.6814266027       16.5776036378
  H         3.3065765090        1.7532732737       17.9193929876
  C         3.4689387849       -0.3629467496       18.5247782477
  H        15.0417954945        0.7118765792       23.3207082265
  H        15.6561510067        0.5592121120       21.6166533876
  C        16.4884692414        2.2685360393       22.6933013480
  C        11.2447204779        7.9093149884       13.1833323106
  S         4.4241354451        1.1180734638       37.4917709200
  C         4.6844415754       -1.8430670812       37.1782413229
  H         3.9835044939       -0.3980365575       19.4727867621
  H         2.4552802904       -0.1865439967       18.7487126682
  C         3.6313827400       -1.6822778892       17.7830933228
  H        16.0853819874        3.1007307578       23.2880216671
  H        16.7714737830        2.7055932036       21.7288441578
  C        17.6403611756        1.5541441302       23.4089570756
  H        10.9718524762        8.9391944376       13.2870339259
  C        11.8059275143        7.5913183269       11.9807823434
  H         4.1941749908       -1.5448318560       38.0814169638
  H         4.1532561162       -2.8032357169       37.0223050450
  C         6.1385782735       -2.0702362004       37.5458956730
  H         4.2034142630       -2.3852995865       18.3961261247
  H         4.2385713727       -1.6007933399       16.8459057674
  C         2.2663325366       -2.2710679550       17.2552361403
  H        17.6586543026        2.0544663274       24.3758713597
  H        17.5791282327        0.4514894431       23.5337174732
  C        19.0368174003        1.7195470016       22.7343771081
  S        12.4998377495        6.1772604994       11.4569092211
  C        11.9723138791        8.7300796576       11.0399405977
  H         6.7350575551       -1.2190539468       37.2462191883
  H         6.1596330572       -2.3396034147       38.5890125420
  H         6.4806234951       -2.9252407608       37.0448223914
  H         2.5368984585       -3.1959129509       16.6696184477
  H         1.7577868166       -1.6445553159       16.5140478731
  H         1.6240075808       -2.7750436997       17.9450104378
  H        19.3406119708        2.7615055367       22.6668457458
  H        19.0138022997        1.3270302652       21.7050267343
  H        19.7616739831        1.1625308903       23.3884632439
  C        12.8363003318        6.9811551999        9.9686456686
  N        12.6383076376        8.3387906327        9.9684790727
  O        11.5363127495        9.8674547269       11.2815780961
  S        13.5190288360        6.1041639136        8.5605463897
  C        12.6870673887        9.1975784299        8.7860019062
  H        12.9745007622       10.2338883127        9.2358503848
  H        13.5291858341        8.7483343018        8.2323883444
  C        11.4032752876        9.0836952117        8.0346009180
  H        10.7287595110        9.7843658542        8.4652968884
  H        11.4339769510        9.1644832766        6.8447482352
  H        10.8609598069        8.0891881607        8.2384405831
  H        22.6218227510        8.9284473695        3.8211266074
  C        23.2032135280        9.8387987414        3.7292033106
  H        24.2566450036        9.5456300225        3.7058239214
  C        22.9558178882       10.8016208575        4.8729813086
  C        22.7797751692       10.3456576972        2.2975435590
  C        21.5646226652       10.7052066105        5.4072060847
  H        23.4758957661       10.5687971542        5.8111546495
  H        23.1532195332       11.8368244818        4.6166237270
  H        23.4128521376       11.2173195157        1.9766520852
  H        21.7046261184       10.6381796909        2.3025105986
  H        22.9169527459        9.6101012606        1.6004094607
  C        21.2900588944        9.2819530474        5.9762198716
  H        21.4918487423       11.5186439373        6.1191926216
  H        20.7640223417       10.9132202359        4.7072763513
  C        20.5439546203        9.3147445729        7.3066648444
  H        22.1492195625        8.6602635161        6.0761556579
  H        20.6183259262        8.8864655235        5.2738020252
  C        19.2607729740       10.1593627767        7.3068053963
  H        21.2053873122        9.6837814556        8.1223188539
  H        20.3611056718        8.2819943725        7.5464305842
  C        18.1422826423        9.5575164432        6.5260755245
  H        18.8115307779       10.1846206171        8.2463045853
  H        19.4010724694       11.2301118684        7.0894438012
  C        16.7928577645       10.3878453366        6.6509593914
  H        17.8947688261        8.5527888935        6.9106442356
  H        18.3002366118        9.3509795389        5.4985724435
  C        17.1467175405       11.7320218829        5.9830683263
  C        16.4931504577       11.0456219708        7.9658581915
  C        15.5657482330        9.7042119097        6.0711539223
  C        16.9190024334       12.7722910040        6.8250721078
  C        17.6231637950       12.1714076617        4.7907876535
  C        16.5444575431       12.3813657621        8.0731707948
  C        16.2532288511       10.3245816672        9.1492943011
  H        15.8673721527        9.3401676224        5.1174475869
  H        15.3067941916        8.8227194288        6.6770785457
  C        14.3704470731       10.6012882521        5.8473447317
  S        17.3342526270       14.3337860486        6.2173778257
  C        17.7850809942       13.5619475511        4.7217155226
  H        17.9381566964       11.3505334829        4.1622886551
  C        16.2894689348       12.9097591451        9.2687523439
  H        16.1861055539        9.2511650386        9.0742925703
  C        15.8216733785       10.8976103530       10.2982925247
  H        14.6294968693       11.6304944604        5.4623022467
  H        13.8578842074       10.8382225252        6.8000433063
  C        13.3585366021        9.9467307371        4.9510487807
  C        18.3258066768       14.2772884228        3.5336364963
  C        15.8027074723       12.2190062957       10.4138153073
  H        16.2303899727       13.9872793296        9.2990700706
  C        15.4493978765       10.4560807996       11.5521714393
  H        12.2498480495       10.2487766452        5.0116731298
  H        13.3627868359        8.8932626920        5.2464820444
  C        13.7209010972       10.0971731330        3.4335278507
  C        18.4312178753       15.6754335817        3.3944093665
  C        18.7799397865       13.4027820170        2.4206605626
  C        15.4341324752       12.9475351069       11.7191806513
  C        15.2330779940       11.5636964939       12.3819980380
  S        15.1925852077        8.8989053532       12.2970752314
  H        14.5870159303        9.4209628294        3.3778783209
  H        14.2126857577       11.0742909576        3.2374231757
  C        12.6281132607        9.8109392350        2.4031967957
  N        18.0803101272       16.6350178954        4.3677560242
  C        18.7716503918       16.2480857661        2.1616737695
  C        19.1807758009       14.0117490398        1.2456470004
  H        18.9239633295       12.3846870272        2.5218402556
  C        14.1097395395       13.7703335634       11.5490282413
  C        16.5788684653       13.7945928400       12.3306563356
  C        14.8546182612       11.1351110387       13.6247564825
  C        14.7001092288        9.7647626632       13.7309539256
  H        12.0239269774        8.9645036063        2.8423620839
  H        12.1326688818       10.7183505582        2.1659304215
  C        13.1876562858        9.2372171546        1.1723362721
  S        18.1052708294       18.1322513343        3.6942264385
  N        18.6972600626       17.6645141742        2.1843765432
  C        19.1917319746       15.5156593691        1.0153090773
  H        19.6027471196       13.3590017118        0.4791414500
  H        14.1098296063       14.2067687459       10.5788639512
  H        13.9821238742       14.6013969107       12.2508890714
  C        12.8189208362       12.8599398032       11.5476284429
  H        16.9771781796       14.4402710676       11.5420552614
  H        16.1448603703       14.4534362435       13.0368541306
  C        17.7556713114       12.9558005456       12.9455793109
  H        14.5289188234       11.8922353449       14.3903953678
  C        14.4588178522        8.9893387257       14.9928988247
  H        12.5001504423        8.5246168569        0.7538221764
  H        14.0968844722        8.6970059370        1.3016753224
  C        13.5320205236       10.2731956083        0.0941103588
  C        19.3469219448       16.2479171322       -0.2164388717
  H        12.9943766931       12.0164915013       10.8574223781
  H        12.6573374083       12.5481173127       12.5757857911
  C        11.5707274163       13.6565978727       11.1175534857
  H        18.1836566180       12.0946698935       12.3368658724
  H        17.2969055820       12.3740904323       13.7298726858
  C        18.8467742109       13.8730716531       13.6015660421
  C        14.2828452720        7.6049704053       15.0761657439
  C        14.1783836917        9.7250812149       16.2694250036
  H        13.6501111691       11.2154368188        0.6293860926
  H        14.4754630277        9.9099510830       -0.3333082282
  C        12.3937278392       10.3599329647       -0.8902501160
  H        19.2251967047       17.3086459706       -0.1173037598
  C        19.5633229154       15.8632188085       -1.5157294930
  H        11.8817239030       14.4854474511       10.4159656845
  H        11.1917954358       14.1791407191       12.0342237018
  C        10.4322984293       12.8149640079       10.5997772544
  H        19.2102781379       14.5113280696       12.8188567665
  H        18.3556845749       14.5377985777       14.3434263390
  C        20.0933101030       13.2505017598       14.2835509536
  N        14.4389612683        6.6317719743       14.0681998045
  C        14.0282394291        6.9383048149       16.3048736015
  C        13.8144160135        9.1125874056       17.4740680996
  H        14.2550695052       10.7885895193       16.1876697295
  H        12.5774175995       11.2476628780       -1.4559193014
  H        11.4479335536       10.4376872406       -0.3310128096
  H        12.2609265654        9.5665400563       -1.6419343797
  S        19.7755384901       14.1864493475       -1.9396942222
  C        19.5665267914       16.8257546188       -2.5811234939
  H        10.7800148485       11.8333978215       10.1915095907
  H         9.7462800847       12.6230004742       11.4110892462
  C         9.6934370678       13.5074080019        9.3969481162
  H        20.6747724473       12.8505470206       13.4456081301
  H        19.8489313992       12.3914684337       14.8933762096
  C        20.8971774396       14.2975286697       15.0563391886
  S        14.2951637086        5.1343473045       14.6207536330
  N        13.8702990038        5.5738750203       16.1768109092
  C        13.8080724970        7.6543263723       17.5463337680
  H        13.6426499257        9.6472175853       18.3632853522
  C        20.0754282798       14.8142330290       -3.6063236890
  N        20.0172788001       16.1664343739       -3.7073217395
  O        19.4508854832       18.0079668652       -2.4119069699
  H         9.4240249884       14.5759179967        9.6139875028
  H        10.4147876785       13.5916580800        8.5641356463
  C         8.6171080328       12.6083188094        8.8580380530
  H        20.2127755730       14.7611686665       15.8074881459
  H        21.7315528028       13.8182183282       15.6321518133
  C        21.2741740755       15.5199554763       14.1974719528
  C        13.5169313942        6.9090659320       18.7256770956
  S        20.4312364306       13.8409744067       -5.0502056903
  C        20.0814075489       16.7061388643       -5.0380448037
  H         8.8276411036       12.2738547396        7.7834951398
  H         8.6283051873       11.6512390876        9.4882278175
  C         7.2095563972       13.2448057538        8.9843243864
  H        20.3629554646       16.1860464672       14.0185405667
  H        21.6149766027       15.2192621344       13.1742510489
  C        22.3098123318       16.4338388724       14.8522268660
  H        13.8566571676        5.9224945705       18.7726531389
  C        12.9004421574        7.2521291107       19.9149481414
  H        20.8804669110       16.3801574060       -5.6922822420
  H        20.3302324809       17.7219205907       -4.9225860744
  C        18.6795743517       16.8913429144       -5.6542001936
  H         6.5470913064       12.8961647456        8.1722763626
  H         7.3629202513       14.2603084374        8.8785350537
  C         6.5910982458       12.9333564390       10.2970851331
  H        22.7772126212       15.8821284936       15.6805315415
  H        23.0964661565       16.5893888492       14.1132228371
  C        21.6614673444       17.7781702194       15.2668293140
  S        12.2274367058        8.7586214060       20.2910571044
  C        12.7554985755        6.1701120081       20.9431074896
  H        18.5645421995       16.3872083998       -6.6370804704
  H        18.5018999944       18.0087461695       -5.7684086041
  H        17.8822719647       16.5635466210       -4.9634678401
  H         6.7015171462       11.8616154584       10.6280808190
  H         7.0438367395       13.6154550434       11.0824641588
  H         5.5579864034       13.1973871821       10.0432704973
  H        21.1592465778       17.6199141401       16.2469871131
  H        22.5419272950       18.4873640947       15.4113003844
  H        20.9031461189       18.0558308709       14.5430568381
  C        11.7922452754        8.0374939855       21.8181044241
  N        12.1130041788        6.7543032005       21.9719004158
  O        13.2382676101        5.0330031436       20.9003033566
  S        11.2457133595        8.9542776755       23.2311503078
  C        11.7545416635        6.1177640160       23.2190983711
  H        11.5316377244        5.1519808920       22.9237300178
  H        10.7402548721        6.4091413637       23.6533122380
  C        12.8997970506        6.1109108938       24.1705822755
  H        13.1250267133        5.0583463514       24.4765928280
  H        12.7571210963        6.8076042187       25.0094221982
  H        13.7733637783        6.4673006353       23.5730271373
