352
 i =    55800, time =    55800.000, E =        25.1666174839
  H        11.6572834500        5.5420333017       32.4806255105
  C        10.7688315234        6.0567047472       32.2282417688
  H        10.0413666692        5.2458162583       32.0014409381
  C        10.9022175023        6.9206228817       30.9557192233
  C        10.2710713225        6.8097284926       33.4250946948
  C        11.3376611226        6.0798795381       29.7107504812
  H         9.9981090014        7.5029016697       30.7432516752
  H        11.6314905708        7.6772352467       31.2797444979
  H         9.4839059355        7.4898113746       33.2102178490
  H         9.8404638162        6.1568650882       34.1836761048
  H        10.9907242905        7.4963676156       33.9280512983
  C        10.2160372632        5.7134530369       28.7501504085
  H        11.8631873244        5.2180843073       30.1218343189
  H        12.1532836241        6.5693573765       29.1529537824
  C        10.8543458376        5.1617010654       27.5052213511
  H         9.6125682539        4.9646057224       29.3617382126
  H         9.5668647548        6.5800146321       28.5994924460
  C         9.8652055552        4.4850981534       26.5741064271
  H        11.7364755296        4.5350685734       27.6945208850
  H        11.3343879773        6.0726808575       27.0575988881
  C         8.6346555894        5.3339304225       26.1605651690
  H        10.3458749791        3.9575291603       25.7384539651
  H         9.5351782350        3.6699771533       27.2807683007
  C         7.3903767081        4.7681313675       25.5041923569
  H         8.2971293649        5.9370271806       26.9590959246
  H         9.0038066100        6.1725032968       25.4746974156
  C         7.0147086942        3.4546093454       26.2134992907
  C         7.8110425153        3.9329949026       24.2792255685
  C         6.2214399096        5.7472456396       25.3074511517
  C         7.2300880164        2.3180000657       25.4194683684
  C         6.5148871188        3.1577802976       27.4796922380
  C         7.7363621054        2.5828522468       24.2064578406
  C         8.3330958418        4.5452542482       23.1490597961
  H         6.6691831878        6.4867368281       24.6506688276
  H         5.9466285756        6.2190689453       26.2428166017
  C         4.9302302537        5.0884033561       24.7835543929
  S         6.7803065164        0.8933452895       26.2196448505
  C         6.4513532994        1.7790575149       27.6643865270
  H         6.3252321771        4.0195360654       28.1385278070
  C         8.0922966683        1.9357259236       23.0780378734
  H         8.3827381599        5.6057886860       23.1283084255
  C         8.7539285585        3.8598692082       22.0176901371
  H         5.1991461692        4.7088267538       23.7962989869
  H         4.6853562327        4.2026546943       25.3544624630
  C         3.7722860813        6.0380932097       24.7070385412
  C         5.8612456155        1.0752699118       28.8950888814
  C         8.6402726025        2.5412474301       21.9019319309
  H         8.0098128669        0.7971997990       23.0241812328
  C         9.1232792089        4.2714946118       20.7806167295
  H         2.9960398023        5.6337867968       24.1024678413
  H         4.0459695053        7.0004662572       24.2766968639
  C         3.1404402308        6.2309978388       26.0672297097
  C         5.9169578103       -0.3424279751       29.1044175980
  C         5.3005673438        1.9033254611       29.9903661382
  C         9.0142732407        1.8573537924       20.6185693993
  C         9.2300607108        3.2529635239       19.9055411595
  S         9.2300152657        5.9112008718       20.1418373906
  H         2.3964961477        7.0262202410       25.8572857150
  H         3.7515786115        6.4860137463       26.9963466381
  C         2.3314256156        5.0034696706       26.4999410519
  N         6.5250169048       -1.3165967609       28.2043981320
  C         5.5811376758       -0.9637888812       30.3060814769
  C         4.9766844284        1.3224558060       31.1500536969
  H         5.2716319999        2.9881123906       29.8730035165
  C         7.8293736685        1.1099913462       19.8539704130
  C        10.3070623189        0.9649803222       20.7515368280
  C         9.4707982843        3.7763677528       18.6556789294
  C         9.5277842251        5.1215350545       18.6268877453
  H         1.6632676766        4.5999031760       25.7372515517
  H         3.0251312189        4.1365229503       26.6176255754
  C         1.6866718323        5.0455362991       27.9261968647
  S         6.5036107517       -2.8042634554       28.9810291206
  N         5.6621086516       -2.3713080409       30.3395646655
  C         5.2195834588       -0.1442128967       31.4271652917
  H         4.5793691346        1.9407450875       31.9651545723
  H         7.6430084327        0.1560324545       20.3975801403
  H         8.1340371387        0.9881270827       18.8282418552
  C         6.4521993978        1.8235145840       19.7908124183
  H        10.4355825507        0.6247111790       19.7086694434
  H        10.1542266870        0.0499911118       21.4528221784
  C        11.4904616594        1.7006202361       21.2959139517
  H         9.5056003176        3.0693124155       17.8311091666
  C         9.8266070326        5.8540303781       17.3949263072
  H         0.9449658880        4.2479240107       28.1547415550
  H         1.1989749718        6.0467678612       28.0347424095
  C         2.7375662575        5.0184905962       29.0371695036
  C         4.9658045338       -0.7477229645       32.7543273251
  H         6.6301850241        2.8423308201       19.8503215605
  H         5.8609938328        1.5171748898       20.5874372731
  C         5.7316741129        1.5305424926       18.4820082879
  H        11.3043893060        1.9939189687       22.3240580406
  H        11.7002810454        2.6516077393       20.7938962799
  C        12.8059818816        0.8968299814       21.1748378075
  C         9.8173681751        7.3193267549       17.3264786889
  C         9.9777155346        5.1507212536       16.1227073942
  H         3.2541076840        4.0282737048       28.9833754606
  H         3.3843662959        5.8467039448       28.8227661685
  C         2.1094007518        5.3065440164       30.3855343087
  H         4.8195870049       -1.7499340794       32.7383762311
  C         4.7206312724       -0.2020171532       33.9922393654
  H         5.6494705255        0.4402411575       18.4617277807
  H         6.3183558989        1.8114077303       17.6310431791
  C         4.2918248777        2.0854055304       18.4658623167
  H        12.7542553751        0.0943904103       21.8916076381
  H        12.7935801985        0.3903397158       20.1819233808
  C        14.1052374218        1.5773694689       21.3363360244
  N         9.6222452816        8.2055632061       18.3981718000
  C        10.1327720658        7.9830356766       16.1383425469
  C        10.3445888917        5.8629149370       14.9361768892
  H         9.8993836966        4.0488178753       16.0359842874
  H         1.3759633771        4.5358362611       30.6119448839
  H         2.8623045423        5.3709332679       31.2692952508
  H         1.6649456625        6.3081880895       30.3027170313
  S         4.4778511274        1.4080487390       34.3705550274
  C         4.7998104974       -1.1908334115       35.0686199547
  H         4.3359188471        3.0548227125       18.9709864696
  H         3.9070076370        2.3967387305       17.5062345094
  C         3.2517025255        1.0055606571       19.0176124981
  H        14.1593410951        2.5866316695       20.8018169823
  H        14.8087919431        0.9653890104       20.8892694278
  C        14.4296674622        1.9423086729       22.8143156617
  S         9.8319706920        9.7046701417       17.9118434947
  N        10.0945516815        9.3919971177       16.3059326489
  C        10.5283424529        7.3351510068       14.9201985977
  H        10.4434953310        5.3550293373       14.0049006773
  C         4.1703689663        0.7287464653       35.9883456360
  N         4.2829308556       -0.6235138567       36.1979891799
  O         5.0885573921       -2.4077042080       34.8790027166
  H         2.3603556025        1.5237135725       19.3345586013
  H         3.7224626588        0.5171262260       19.8802892137
  C         3.0573146585       -0.0480368243       17.9233454217
  H        13.5476708095        2.3415496100       23.2922529026
  H        14.6215193847        1.0380044157       23.3715426893
  C        15.6841296256        2.8243943144       22.9114478454
  C        10.8652741970        8.0997747104       13.8082343621
  S         3.8867274893        1.7676037484       37.3945954246
  C         4.5638540253       -1.2426240884       37.5373430263
  H         2.4888643879        0.3087583101       17.0362061071
  H         3.9975709579       -0.4580353815       17.5315932155
  C         2.0962112794       -1.1229134282       18.4353916642
  H        15.8393114828        3.0588773062       24.0304050222
  H        15.6320533779        3.6992147110       22.3859682358
  C        16.8950515031        2.0577359184       22.2673332494
  H        10.6043291388        9.1358718101       13.9079591919
  C        11.4218197297        7.8006391180       12.5949843995
  H         4.0623811735       -0.7662367246       38.2974792758
  H         4.0271300604       -2.1548833107       37.5434910388
  C         6.0351849745       -1.2163082359       37.8528661366
  H         1.0945332877       -0.7280282867       18.4320846257
  H         2.4419082244       -1.4192586465       19.4182626972
  C         2.2785213953       -2.3602030799       17.6204947599
  H        16.5776979416        1.0022488090       22.2223497867
  H        16.9198073154        2.4151895784       21.2688693587
  C        18.3017069518        2.2979090882       22.8804981138
  S        11.9399380599        6.3273309847       11.9288282910
  C        11.5323370615        8.9609395068       11.6795372734
  H         6.3068990375       -0.4165032125       38.5935541280
  H         6.1937931687       -2.1491475077       38.3855242959
  H         6.7736579072       -1.2476845430       37.0887286165
  H         3.2077620489       -2.8294414215       17.6919625813
  H         2.1469999352       -2.0177577856       16.5949369151
  H         1.5293650407       -3.1418866261       17.8353301883
  H        18.5917120063        3.2643152843       22.5193440949
  H        19.0582890088        1.5409119504       22.7866513562
  H        18.1027891842        2.5671489279       24.0121226441
  C        12.4118634716        7.2391050294       10.5344134340
  N        12.0715422574        8.5160442693       10.5117606763
  O        11.0954169334       10.0978463904       11.8918986045
  S        13.3708911869        6.5911433283        9.1512723832
  C        12.3071505963        9.4624568279        9.3744931934
  H        12.2524438133       10.5330074183        9.5925892775
  H        13.2393617469        9.4162624952        8.9216069240
  C        11.1970762248        9.2895667041        8.2796451771
  H        10.1947466750        9.1309940711        8.6982081292
  H        11.1932016235       10.2211179081        7.7461744372
  H        11.5455688454        8.4862345474        7.5467796087
  H        22.2877932441        8.6000554743        3.7439758425
  C        22.3703574254        9.7017502615        3.7242795231
  H        22.9708157214       10.0317553556        2.8876776188
  C        23.0893934271       10.1057670892        4.9910629115
  C        21.0201216493       10.2800007197        3.4072411169
  C        22.1744313891       10.2952219437        6.2306064405
  H        23.9356233546        9.4284683445        5.1365680831
  H        23.5044879868       11.0963942229        4.8771902465
  H        21.1635780603       11.2277291690        3.0064803661
  H        20.3390492254       10.3760113200        4.2214051741
  H        20.5768106514        9.8614405803        2.4823274233
  C        21.3670211830        9.0543558570        6.6071744821
  H        22.7927130713       10.6951219222        7.0235260146
  H        21.5648861046       11.1382566784        5.9871555902
  C        20.6902215913        9.4277605602        8.0160339812
  H        22.1397491672        8.3010508035        6.8662218393
  H        20.7348385307        8.7514096694        5.7666122521
  C        19.4602187933       10.3026319599        7.8824680142
  H        21.3945941396        9.8677075437        8.6343376975
  H        20.3673328423        8.4499565710        8.4160760224
  C        18.1677396510        9.6367795404        7.2874965750
  H        19.2979580523       10.7208804585        8.8525173357
  H        19.7572680167       11.2547387903        7.4092948806
  C        16.8379341638       10.4716605536        7.2659395681
  H        17.8217684052        8.6997498616        7.7511904249
  H        18.4633170502        9.2430482832        6.3100946641
  C        17.2614388073       11.7878477764        6.6393746905
  C        16.4800339772       11.1662856746        8.5395138822
  C        15.5500242014        9.9138539382        6.5958365553
  C        17.1088378074       12.8479325253        7.4813180480
  C        17.7420704956       12.1615775196        5.3684543196
  C        16.6446480890       12.5107642268        8.7280119691
  C        15.9791286190       10.4601460568        9.6064401425
  H        15.9228885996        9.3910794877        5.7021907149
  H        15.1553983123        9.1120032686        7.2378937848
  C        14.4298861340       10.8996197031        6.3018166805
  S        17.3476899116       14.3657136894        6.6341702639
  C        17.8343696062       13.5104877172        5.2419004338
  H        17.9542537634       11.4202788792        4.5870467528
  C        16.1746336444       13.0524222188        9.8770191712
  H        15.6632601483        9.4034164054        9.4453570655
  C        15.6473976078       11.0119308558       10.8110301013
  H        14.7817309272       11.8991341829        5.9582895234
  H        14.0537429983       11.0743292029        7.2772492317
  C        13.3858128455       10.4387382793        5.3213136218
  C        18.2797027160       14.2342465435        3.9618028512
  C        15.7147354359       12.3403818703       10.9696426223
  H        16.2865767924       14.0801133045       10.0094860406
  C        15.2114223857       10.5631511721       12.0267785670
  H        12.7264685016       11.2783521688        5.4205594153
  H        12.7550327599        9.6575644620        5.8024437804
  C        13.7385357427       10.1744977605        3.8139903751
  C        18.1836518188       15.6536543732        3.7112740410
  C        18.5364310138       13.4401121678        2.7730252073
  C        15.2985025999       12.9642117949       12.2613781240
  C        14.9928246045       11.6038969320       12.8662325766
  S        14.9571738347        9.0532100927       12.7495798313
  H        14.5007958515        9.3864443354        3.8157542171
  H        14.1308787366       11.0592722276        3.4263318331
  C        12.4258295460        9.8734205317        3.0247306732
  N        17.7960196874       16.5917888078        4.6529122086
  C        18.4342484322       16.2285362923        2.5048964410
  C        18.6402467162       13.9856296702        1.4843777028
  H        18.4416867359       12.3707161791        2.7814875237
  C        14.0074671695       13.8426432130       12.0572527609
  C        16.5316169404       13.6071375242       12.9627489012
  C        14.6918744243       11.1179160394       14.1281942157
  C        14.7365905293        9.7930018087       14.2929607809
  H        11.7009545534        9.3958569837        3.7175287649
  H        12.0177759972       10.7680701229        2.8636026256
  C        12.6080427430        9.0260657463        1.7377384375
  S        17.8537337885       18.1359580017        4.0815530804
  N        18.2238637567       17.6261753247        2.5040856875
  C        18.6881642385       15.4388319962        1.3153921988
  H        18.7354831528       13.3448476088        0.6461783338
  H        14.2173403224       14.4683947754       11.2959295141
  H        13.7782815088       14.4105177004       12.9017730075
  C        12.8148820890       13.1081244582       11.5659038884
  H        16.9046703912       14.3691099028       12.3010847752
  H        16.1457271542       14.1405592399       13.8549342586
  C        17.6195803983       12.6510106935       13.4681377389
  H        14.5632465082       11.9315467579       14.8593345060
  C        14.3752878967        9.0007153250       15.5107739309
  H        11.7077844292        8.5950929877        1.4114261091
  H        13.2364076100        8.1460792925        1.9558134501
  C        13.1979877861        9.8790256717        0.5797334559
  C        18.8710879399       16.2007388638        0.1147688079
  H        12.9862962830       12.4063492212       10.7233711324
  H        12.5666952031       12.3405134342       12.2790298914
  C        11.5668234170       14.0503491865       11.1843098254
  H        18.1559193774       12.2945514487       12.5945066163
  H        17.1036229000       11.8412363084       14.0175880997
  C        18.6917117027       13.3866706557       14.3075622691
  C        14.0273914111        7.6436030573       15.5719712860
  C        14.1613353014        9.7527465494       16.7445732940
  H        13.9776940891       10.6539347399        0.8454544077
  H        13.6980930173        9.2573196781       -0.1800754293
  C        12.0223468199       10.4997176046       -0.1919916139
  H        18.7302605449       17.2951735719        0.1665913129
  C        19.1513716736       15.8500760366       -1.1545656348
  H        11.8256547354       14.6916021787       10.3705996055
  H        11.3475483473       14.7841280594       12.0136567719
  C        10.3487959704       13.1293499161       10.6680659004
  H        18.9613278295       14.2453174017       13.6506968636
  H        18.1588899911       13.8302388306       15.1569806901
  C        19.8608240582       12.6034335249       14.7206429321
  N        14.0663218559        6.7521144450       14.4961822671
  C        13.5869752762        6.9734801818       16.7244336881
  C        13.7050680890        9.1016231430       17.9206629219
  H        14.1950857045       10.8466162883       16.6852623055
  H        11.6536291014        9.7685138660       -0.8721177636
  H        12.3126520035       11.2866811201       -0.9177983521
  H        11.2964183170       10.9835507393        0.4418007977
  S        19.5300787701       14.2733468505       -1.6008229365
  C        19.2568714934       16.8523097921       -2.2012922845
  H        10.8081477821       12.3479494012       10.0866977545
  H         9.9740268069       12.6663571830       11.5441608449
  C         9.2237380553       13.8975466813        9.8260924623
  H        19.9048207217       11.8077919409       14.0676345253
  H        19.6184075709       12.1559163772       15.6871555952
  C        21.1486467330       13.5153239438       14.7236307973
  S        13.5873987989        5.3108290007       14.9094829585
  N        13.4547134508        5.5877181506       16.5103969400
  C        13.4723300909        7.6518497634       17.9605563204
  H        13.5821926591        9.7871988799       18.8059363734
  C        19.6723323748       14.9150475694       -3.2234760924
  N        19.6411354109       16.2612491186       -3.3205084936
  O        19.0935328698       18.0394520151       -2.1546105266
  H         8.7440294513       14.5805675135       10.4952268443
  H         9.5858064416       14.5292007043        9.0661189043
  C         8.1534194800       12.9517970581        9.2557408310
  H        22.0729358234       13.0523947888       15.1479997837
  H        21.4414223962       13.7046528119       13.6017826232
  C        20.9301089822       14.7926138168       15.5318752777
  C        13.0309879119        6.8634972173       19.0447376343
  S        20.2104840370       14.1045151454       -4.7369425766
  C        19.6489295771       17.0426699244       -4.5718590829
  H         8.5512589889       12.3010691318        8.5179820290
  H         7.7380586725       12.3463200399       10.0783026981
  C         6.9930508333       13.7212811552        8.6271540835
  H        20.2703859277       14.6746271374       16.4137283123
  H        20.4160925760       15.5516402081       14.9727702168
  C        22.2650019096       15.3798955060       16.0029932257
  H        13.3045052027        5.8776540949       18.9935871240
  C        12.4100385972        7.3321444093       20.2245019065
  H        20.1499598625       16.5577893544       -5.4167354570
  H        20.0984004932       18.0278674822       -4.3634295963
  C        18.1866036771       17.2458782592       -5.0197915092
  H         6.7267987729       13.3815732142        7.6608857899
  H         7.2970697910       14.7564974461        8.4282970239
  C         5.7321557724       13.8959992081        9.5094536864
  H        22.5102634978       14.9875210458       16.9722799325
  H        23.0076554430       15.1034310600       15.3704655259
  C        22.2682390344       16.9238077869       16.1329766822
  S        11.6604210736        8.8393516796       20.6241802984
  C        12.3775676418        6.2714745946       21.3111220319
  H        18.1442519525       17.9003282313       -5.8501623257
  H        17.6354405227       17.7028405067       -4.1761825703
  H        17.7099175388       16.2589918697       -5.2968134367
  H         6.0775342122       14.3905547948       10.4358258130
  H         4.9696592325       14.3895310198        8.8761896478
  H         5.4126128276       12.9113641528        9.7865740697
  H        22.0690994140       17.4576009026       15.1666322257
  H        21.5038138457       17.2062128327       16.8635380165
  H        23.2598890903       17.3038411296       16.5146921077
  C        11.3315568219        8.0758114494       22.1662262913
  N        11.7472046059        6.7885820227       22.3697001672
  O        12.8513829072        5.1207672082       21.2352116625
  S        10.3313946517        8.7190469320       23.4182744773
  C        11.6803130339        6.1079394032       23.6372293405
  H        11.7343452432        5.0186405169       23.4586101581
  H        10.6863989609        6.2410649764       24.1679454589
  C        12.9371309746        6.4533620982       24.4712459701
  H        13.9230713894        6.1996612804       23.9869281659
  H        12.8361477109        5.8135277231       25.3471165126
  H        12.8728265502        7.4775894733       24.8572913082
