352
 i =    32700, time =    32700.000, E =        25.1742022833
  H        11.9675650444        4.9798281999       32.3488306081
  C        11.0639238871        5.4643340673       32.1420622635
  H        10.4855128653        4.7481659322       31.5210982013
  C        11.3273107313        6.7107524821       31.3391063908
  C        10.4622407332        5.6522228783       33.4674930146
  C        11.6389345214        6.4962585592       29.7822312496
  H        10.4045006892        7.3172539317       31.4299617546
  H        12.0878860998        7.1837416312       31.8397526090
  H         9.5514078868        6.2774137491       33.2381770807
  H        10.1436730479        4.6947297813       33.8610925377
  H        11.0715639132        6.1174748314       34.1689051881
  C        10.3791707342        6.4959245641       28.8467100329
  H        12.1767645361        5.5223048274       29.5967642853
  H        12.1898877671        7.3783163550       29.5702783925
  C        10.9311135482        6.1857910455       27.3850329723
  H         9.7795563986        5.7054935980       29.2652438679
  H         9.8795907656        7.5163001712       28.8677348363
  C         9.9125945403        5.4443992216       26.5890298107
  H        11.9483003710        5.6558263495       27.4367743333
  H        11.0113456412        7.1369092874       26.8876714723
  C         8.7166625761        6.3437163087       26.3095673835
  H        10.3200875043        5.2019277022       25.6397396143
  H         9.5264962883        4.6360289409       27.1353897716
  C         7.6217471822        5.5306797387       25.5208000893
  H         8.3944020601        6.8608221327       27.2418115084
  H         8.9650764969        7.2032833164       25.7018301628
  C         7.2713273340        4.1762911778       26.1465927650
  C         8.0639302615        4.9096715405       24.2344666359
  C         6.3753338224        6.4443235594       25.3260528045
  C         7.5451302518        3.0893740593       25.2966197532
  C         6.7650303067        3.7217360900       27.4202240706
  C         8.0887156718        3.5598679335       24.0861669588
  C         8.5509744387        5.6095061929       23.0862147545
  H         6.6079073347        7.3450644975       24.8284499845
  H         5.9055865060        6.6758215768       26.2935319475
  C         5.2244698743        5.6645511693       24.6485553621
  S         7.1729799205        1.5574432556       26.0887603373
  C         6.5260530479        2.3710889398       27.4632683810
  H         6.5860733726        4.4936150567       28.1099688596
  C         8.4279036803        2.9732394399       22.8851435746
  H         8.5378577285        6.6345285101       23.2475566049
  C         8.9142602089        4.9883908138       21.9042371225
  H         5.5706350708        5.3509231496       23.7138360846
  H         5.0709889667        4.7342766701       25.2061211474
  C         3.8570200591        6.4380625709       24.4851174309
  C         6.1049777519        1.6211042529       28.7040993691
  C         8.8788500945        3.6676967178       21.7826869408
  H         8.3184214949        1.9134779356       22.8842903749
  C         9.2355394611        5.3074096043       20.5437279543
  H         3.2326019953        5.9455783317       23.7266287349
  H         4.0328962648        7.4661204844       24.0638191014
  C         2.9696471357        6.5427161447       25.7667006573
  C         5.9531583836        0.2288440066       28.9169215935
  C         5.5251163127        2.4418151428       29.8376832143
  C         9.1346137729        2.9220620933       20.5020345868
  C         9.4519868490        4.2302287133       19.8048321560
  S         9.4837972673        6.8207081940       19.7049438962
  H         2.1433379712        7.1228339710       25.3916197783
  H         3.5542456671        7.0286837351       26.5236364056
  C         2.3444319975        5.2767481235       26.3168006962
  N         6.2352126285       -0.7495940349       27.8835068753
  C         5.6581929520       -0.3660632990       30.1183129858
  C         5.0735004888        1.8245278094       31.0691314479
  H         5.3568374542        3.5126699921       29.6860396824
  C         7.8912255711        2.1415846166       19.9161725555
  C        10.4345331172        2.1082040466       20.4841647302
  C         9.8913048953        4.6356856319       18.5725305913
  C         9.9008293125        6.0106781929       18.3093925016
  H         1.8354891421        4.7516144952       25.4861587699
  H         3.0555389621        4.4934437694       26.6555371048
  C         1.2324233150        5.4515835412       27.3159947103
  S         6.2184565753       -2.2377920855       28.5333164767
  N         5.7922786751       -1.7681789144       30.0814370431
  C         5.2650125303        0.3258902228       31.2685980919
  H         4.7360207460        2.5156762134       31.8640062243
  H         7.3273023830        1.7371015800       20.7320871413
  H         8.2145062279        1.3682666120       19.2037697150
  C         6.9305452846        3.1444560475       19.2364637274
  H        10.6806722732        1.8514901906       19.4801144974
  H        10.1480348426        1.2051436041       21.0017961475
  C        11.6437358147        2.7097788008       21.2117992462
  H        10.2513096109        3.9147638584       17.8221007899
  C        10.1872083895        6.6066212232       16.9739888974
  H         0.6472136787        4.5973010034       27.5896277612
  H         0.5590978337        6.1521529918       26.7723586380
  C         1.7574837770        6.0915374273       28.6361239290
  C         5.1245392947       -0.3523333477       32.5765428266
  H         7.1816281748        3.6649220626       18.2850493332
  H         6.4017908117        3.8442263663       19.8498133665
  C         5.7775871987        2.3712998983       18.6247301578
  H        11.6060111011        2.5873090272       22.3427251003
  H        11.8765898990        3.7569675444       20.8846406085
  C        12.9018892208        1.9125389178       20.8076247590
  C        10.3340024693        7.9823473621       16.7499297754
  C        10.4299213783        5.7159648521       15.8132884064
  H         1.8702805855        7.1685610765       28.7026012609
  H         1.1297567652        5.7522629836       29.4442084385
  C         3.1079632591        5.4914235714       29.1405665698
  H         5.3922697167       -1.3735933055       32.5184059164
  C         4.8057071917        0.1373859527       33.7805742176
  H         5.3619955878        1.6646233193       19.3808463605
  H         6.1598189788        1.7074328930       17.8507779526
  C         4.7604661197        3.2408903734       17.8878551721
  H        12.8282567877        0.9962107446       21.3495043607
  H        12.7693787229        1.6227771154       19.7640269154
  C        14.2196054830        2.7041152436       20.8778287336
  N        10.1921680982        8.9609914822       17.7361018774
  C        10.6017718497        8.5591296092       15.5179718541
  C        10.8059678221        6.2782188623       14.5898892784
  H        10.4930111917        4.5992311100       15.8937720039
  H         3.1276560748        4.4215170709       29.0270331539
  H         4.0274261478        5.8423318711       28.6372397152
  H         3.2447387904        5.5307153579       30.2224482135
  S         4.3348851832        1.7357204092       34.2741412620
  C         4.7452112308       -0.9053417332       34.8263509496
  H         4.7020875690        3.9997666775       18.5835863729
  H         5.1735639616        3.6642116780       16.9294638558
  C         3.4191532830        2.5074262477       17.7641368984
  H        14.0641352548        3.4616240184       20.1022625627
  H        15.0747154372        2.1531270476       20.4808069473
  C        14.6194458135        3.2896761390       22.2429484694
  S        10.2392859800       10.4260236899       17.0304991860
  N        10.6380510151        9.9722100858       15.4716243237
  C        10.9098387433        7.7634198598       14.4028919183
  H        11.1554316739        5.7324630699       13.7588639057
  C         4.1753307396        1.0504232443       35.8963967517
  N         4.3746236980       -0.2820477314       35.9694000704
  O         4.6055821372       -2.0936635376       34.6125005378
  H         2.7407927649        3.2352043429       17.2422758625
  H         2.8839483195        2.2698073763       18.6527971552
  C         3.3702024951        1.2179097635       16.8618835291
  H        15.3505561603        4.0539471143       22.0909821848
  H        13.7851864176        3.7751926504       22.7905768105
  C        15.1510000712        2.0949533311       23.1457381870
  C        11.1920812864        8.3468557404       13.1298522620
  S         3.5892899263        1.9665130174       37.2864762109
  C         4.2411564867       -1.1095612307       37.2061244210
  H         2.5532025348        1.3372735812       16.2281026632
  H         4.2680541292        1.0789355125       16.2602912382
  C         3.2426182869       -0.0864258292       17.7355723642
  H        15.3337238400        1.1558067972       22.6513368061
  H        14.3908540143        1.8561687635       23.9162046966
  C        16.5718942509        2.4070037460       23.6635813161
  H        10.8335918733        9.3669227290       13.0589170319
  C        11.8158997370        7.8702118807       12.0085668975
  H         3.5201865628       -0.7207956535       37.8860132691
  H         3.6578616392       -2.0024837091       36.9334779956
  C         5.6850674838       -1.3931802598       37.7492090303
  H         3.3651003740        0.0111610861       18.8321851326
  H         4.0455492044       -0.6988554182       17.3573972826
  C         1.9229853193       -0.8855807213       17.4927233764
  H        16.6273264756        3.2862640115       24.2563587187
  H        16.9368152780        1.5906416474       24.2910793485
  C        17.6051549052        2.6902120769       22.5281969109
  S        12.4765958160        6.3509114362       11.7207293869
  C        12.1524742367        8.9286716975       10.9407296290
  H         6.4661233845       -1.1851642843       37.0011748086
  H         5.9902957430       -0.5620948986       38.4401880691
  H         5.8102016405       -2.3549311090       38.2977394021
  H         1.7303597312       -1.6190465522       18.2490513438
  H         2.0030982953       -1.5364662518       16.6308378929
  H         1.0671174003       -0.1677185608       17.4232789586
  H        17.1604974401        2.6203002751       21.5278824405
  H        18.5050498935        2.1212024062       22.5614352891
  H        17.9550083383        3.7256163339       22.5531456171
  C        13.2581294001        7.1441434289       10.3284831914
  N        12.9296564386        8.4120942019       10.0740787237
  O        11.7163656269       10.0465301113       10.9274888448
  S        13.9440108693        6.2181814613        8.9358386885
  C        13.2586380342        9.1639756850        8.8793764292
  H        13.2787256595       10.2172164546        9.1274598934
  H        14.2842299156        8.8706604537        8.5522046440
  C        12.1749586432        8.9271772461        7.8654937762
  H        11.4076711362        9.7333727635        7.8514806534
  H        12.6623870444        8.8435687620        6.8664821163
  H        11.5766435405        7.9671339260        7.9934957360
  H        21.3042435116       11.8305656722        3.1123215332
  C        21.9148706439       10.9658440374        2.8847247520
  H        21.2302892412       10.1161380641        3.0485470911
  C        22.9448294835       10.7128633385        3.9438847132
  C        22.3948213889       11.1853036376        1.5087079217
  C        22.4104776486       10.9525152227        5.3714845676
  H        23.2811660031        9.6303418495        3.8728472012
  H        23.8387470515       11.3088247924        3.8785471732
  H        23.4451563710       10.7936028770        1.2875698606
  H        22.3809419368       12.1927986949        1.2041878289
  H        21.6192327394       10.6578276133        0.8387264950
  C        21.6275547627        9.7262702362        5.8872151240
  H        23.2364273253       11.2258461562        6.0710075641
  H        21.8065368835       11.9018363947        5.2651984057
  C        20.9356268094        9.9183261879        7.2446300642
  H        22.2645936211        8.8131011809        6.0305416963
  H        20.9084890480        9.3443073576        5.1139259262
  C        19.7203964783       10.8599178761        7.2974865955
  H        21.7347369857       10.2383504422        7.9755492854
  H        20.7772940438        8.9284280447        7.7142701365
  C        18.4939027193       10.0626401087        6.8291142921
  H        19.6397552612       11.0129185310        8.4626016010
  H        19.9620663418       11.7339928031        6.7525020274
  C        17.1332304806       10.9047733333        6.8231480854
  H        18.2744201781        9.1430195519        7.3982271977
  H        18.6403076215        9.6240158126        5.9082183578
  C        17.3958032346       12.3262954851        6.2648137364
  C        16.8371698380       11.5944260130        8.1866927896
  C        15.9929244618       10.3374638008        5.9920995582
  C        17.0685279448       13.4059889370        7.0775688639
  C        17.8030383575       12.7330892442        4.9729827494
  C        16.7993422824       12.9377209115        8.3206517192
  C        16.4381791702       10.8305105516        9.2993416762
  H        16.3593661288        9.8939592791        5.0818223476
  H        15.6712764903        9.4495349568        6.5630381301
  C        14.6713928781       11.1711669008        5.9521385998
  S        17.1471819209       14.9270866487        6.3293988988
  C        17.8055401814       14.1304901557        4.8745080879
  H        18.0815308422       11.9724401866        4.1584169860
  C        16.4071483556       13.5002010588        9.4946018631
  H        16.5205944497        9.7730343592        9.2609646398
  C        16.0154431192       11.4268522004       10.4897974402
  H        14.8234905646       12.1991011459        5.6214667292
  H        14.2201336269       11.3339288389        6.9200311458
  C        13.8042954184       10.3962589181        5.0211820945
  C        18.1898621742       14.7778891677        3.5999144528
  C        15.9212791248       12.7599152825       10.5733566406
  H        16.3536718916       14.5698414274        9.4870235741
  C        15.5203969518       11.0156208016       11.7307617367
  H        12.8071088307       10.4718988208        5.2913203574
  H        13.9392808092        9.3044878736        5.1161837548
  C        14.0371791816       10.7457657193        3.5709060920
  C        18.2975595726       16.1950905953        3.4043078074
  C        18.6569674110       14.0174958621        2.4233027739
  C        15.3121950454       13.4096987975       11.8241684150
  C        15.0273533686       12.0409160976       12.4644555929
  S        15.3133417198        9.4092084059       12.4012420285
  H        15.0250244719       11.0365522074        3.3534351960
  H        13.4206103769       11.6485874984        3.2527963505
  C        13.6817331725        9.5178049553        2.6373315326
  N        17.9449628177       17.1412719088        4.3839036966
  C        18.5668875317       16.7172686944        2.1594022734
  C        19.0382427226       14.5563391185        1.2317904199
  H        18.5549974924       12.9622887496        2.4849510328
  C        13.9870798838       14.1703799729       11.4808222603
  C        16.3060789791       14.2617102062       12.6105245652
  C        14.5026838300       11.5816814770       13.6601211112
  C        14.5324986941       10.1855580535       13.7099599318
  H        14.1749654068        8.5233362584        2.9358488941
  H        12.6145557389        9.4464571416        2.7245459762
  C        13.8745307969        9.7840096881        1.2122567008
  S        17.9962891880       18.5961227473        3.6520540849
  N        18.5251884477       18.0823039609        2.2090798661
  C        18.9418874189       16.0112223281        1.0199307268
  H        19.3204220843       13.8454439324        0.4112508073
  H        14.2146655816       15.0229899774       10.9021148766
  H        13.7533088883       14.6377862950       12.3893260782
  C        12.9417303975       13.3256730459       10.7495158378
  H        16.4587035984       15.2340889169       12.0156603640
  H        15.9008261105       14.6700161235       13.5984891866
  C        17.6599802259       13.5388069369       12.9233510152
  H        14.0955719101       12.2791738267       14.3924404764
  C        14.2207408479        9.3891246817       14.9602046784
  H        14.4313360389        8.9107000332        0.8335625044
  H        14.6205007591       10.5570817938        1.0640791776
  C        12.6607944991        9.9418804179        0.3277062003
  C        19.1047891771       16.7177170846       -0.2123553575
  H        13.1802079218       13.0124808962        9.7302013367
  H        12.7565257157       12.4552217461       11.3875418825
  C        11.5674546691       14.0645155596       10.8302171089
  H        18.0077735129       13.0178081876       12.0600557744
  H        17.4150479405       12.9112019224       13.7836074010
  C        18.6986167275       14.5384659676       13.4109662141
  C        14.2477412277        8.0446604614       15.2214058231
  C        14.0192677861       10.1873659858       16.1945277830
  H        12.1912285931        8.9557208502        0.0918557255
  H        11.8940041100       10.5326731243        0.8649865155
  C        12.9774178734       10.6544211030       -1.0155139102
  H        18.7615416021       17.7959284799       -0.2454268758
  C        19.4004206325       16.3070356713       -1.5033652574
  H        11.6029014290       15.0672508714       10.5412742784
  H        11.1039778480       14.0135948416       11.8565535534
  C        10.4972595709       13.5463636257        9.8254991034
  H        19.1991643865       14.9625581521       12.5005162383
  H        18.1877989898       15.4097167754       13.8669788187
  C        19.8127587912       13.8724275277       14.2144846799
  N        14.6308343076        7.1503555962       14.2264267147
  C        13.8860880777        7.4517095121       16.4052810476
  C        13.6690998075        9.6290459381       17.4239214561
  H        14.2564553033       11.2036061622       16.2312544902
  H        13.9054594832       11.1331566800       -1.0096559843
  H        12.2355517840       11.4348008491       -1.1778564957
  H        12.8568007523        9.9479871063       -1.7818299252
  S        19.6313263195       14.6809877749       -1.9526032280
  C        19.4624035143       17.3395769122       -2.6740864005
  H        10.9553505997       13.3427046029        8.8412962729
  H        10.1250153653       12.5754405866       10.0015166890
  C         9.3059636225       14.4532553945        9.7828333782
  H        20.1678796012       12.9859370164       13.6660664624
  H        19.3903725690       13.5605543576       15.1794201300
  C        21.1149902826       14.5583657888       14.3986805242
  S        14.4650798085        5.6736542387       14.8391956780
  N        13.9364896180        6.0664138749       16.2979777036
  C        13.5737881425        8.1490162510       17.5752267344
  H        13.4364955374       10.2444438928       18.2864202449
  C        19.8843842483       15.3227392975       -3.5800536282
  N        19.8863759064       16.6721313347       -3.7374721893
  O        19.3603279685       18.5731793065       -2.5299428249
  H         9.0733386557       14.8252134218       10.8158964818
  H         9.5265014420       15.3995932499        9.2802228619
  C         8.0766551413       13.7927611807        9.1882236638
  H        21.6908752357       14.0318238439       15.1712302031
  H        21.7026964365       14.6019138733       13.5038935258
  C        20.9746817753       16.0195585758       14.9111239587
  C        13.3550154339        7.5617879488       18.8814274854
  S        20.2934007435       14.3574408636       -5.0293479696
  C        20.1232941092       17.3017003112       -5.0230544483
  H         8.3218435807       13.5882043067        8.1769425006
  H         7.9528416624       12.8192331039        9.7358575318
  C         6.6937440319       14.5060625239        9.2863522804
  H        20.0411233669       16.0932463660       15.5022328011
  H        20.8036544573       16.6379472730       14.0259385851
  C        22.2136461080       16.5752043776       15.5558599099
  H        13.6452695988        6.5214617264       18.9819535700
  C        12.7133242969        8.0837534740       20.0299399134
  H        20.9030071744       16.9440029799       -5.6856204369
  H        20.4042875652       18.3197083077       -4.7238342089
  C        18.8591142475       17.2297737571       -5.8314102643
  H         6.2354100579       14.5168150961        8.3380910817
  H         7.0043428699       15.5472943767        9.4255597160
  C         5.8154649378       14.1834363890       10.4651374657
  H        22.4302457734       16.0210699992       16.5022770748
  H        23.0532531631       16.5407642838       14.8677349664
  C        22.0601226967       18.0803497831       15.8884321383
  S        12.1934777659        9.6847859625       20.4432358221
  C        12.7325033952        7.1180309433       21.1220045715
  H        19.0532342799       17.2250872941       -6.9089671030
  H        18.2975195702       18.0872743195       -5.5990188532
  H        18.2679395732       16.3424215099       -5.5225998648
  H         6.4777084482       14.1817263019       11.3762460004
  H         5.1067466312       14.9894059299       10.6018068453
  H         5.5201961557       13.1406944380       10.4344716481
  H        21.4310955860       18.3399539429       16.7192839711
  H        22.9946006686       18.6248468411       15.8663904486
  H        21.5118068823       18.4110983838       14.9727741207
  C        11.9935092954        9.0275101045       22.0377219377
  N        12.1880662980        7.7265475172       22.2026609874
  O        13.1605654827        5.9807460041       21.0389953552
  S        11.2235568502        9.9683062546       23.2472752361
  C        11.9206125688        7.0103494689       23.4471711049
  H        11.6963346152        5.9687948442       23.0936889559
  H        11.0213663945        7.3251813754       23.9046161855
  C        13.2082258831        7.0649166823       24.3602208017
  H        13.7984807775        6.2190005636       24.1113063656
  H        12.9556622964        6.8162761102       25.3773112619
  H        13.8455431126        7.9734210797       24.4029437511
