352
 i =    82100, time =    82100.000, E =        25.3868491655
  H        10.5154506889        7.3152406320       31.5967440105
  C        11.4072026044        6.8015529485       31.8740300934
  H        12.0236428267        7.6907678614       32.1120771292
  C        12.1277959693        5.9434073829       30.7944082778
  C        11.0423238603        5.9507885874       33.1188013553
  C        11.1047447724        5.0653026060       30.0866601693
  H        12.4868550405        6.6347792524       30.0275415389
  H        12.9734020362        5.3616034005       31.2995404313
  H        11.6963115118        6.1823578330       33.9808938151
  H        10.0384785837        6.2342455016       33.3564981930
  H        11.0692485938        4.8820298229       33.0421620234
  C        10.1870993971        5.7924947664       29.0967839343
  H        10.4606635948        4.7349076003       30.8973918004
  H        11.5614314954        4.1680777264       29.6241162461
  C        10.7193255458        5.8120661497       27.6258118120
  H         9.3197515159        5.1899046967       29.0586125412
  H         9.9423025186        6.7480921057       29.4480120490
  C         9.7455906732        5.1173374775       26.6761335796
  H        11.6653139917        5.3053975897       27.5325112009
  H        10.9620496635        6.8677524446       27.4105371974
  C         8.5567678290        6.0121278794       26.3007029697
  H        10.1800759603        4.9918592331       25.7641107363
  H         9.6216019690        4.0966708494       27.0486949629
  C         7.4058003877        5.1950852908       25.5844273240
  H         8.2878659096        6.4413142816       27.1896706075
  H         8.8904613180        6.8919348513       25.7011696134
  C         7.0908533437        3.8947520608       26.2704683879
  C         7.8769144170        4.5394307051       24.3658311884
  C         6.1699558192        5.9951766614       25.0092448748
  C         7.3406878643        2.8308790024       25.4115593710
  C         6.6547340650        3.5226229464       27.4846693266
  C         7.8785495808        3.2236692247       24.1905275156
  C         8.4893551547        5.2646237143       23.2828251550
  H         5.6262000107        5.5349977755       24.1440420859
  H         6.5179891339        7.0097726762       24.7166556908
  C         5.0619072979        6.1656686136       26.0916153016
  S         6.9154431920        1.3227391073       26.1595897863
  C         6.5917851217        2.1353179042       27.6371292116
  H         6.4549736700        4.2477008580       28.2725123587
  C         8.2626589997        2.6262455501       23.0219944188
  H         8.6512515219        6.3132360961       23.4505514476
  C         8.9110813393        4.6812692900       22.1412171164
  H         4.9352492148        5.2524004779       26.6541571765
  H         5.4200843120        7.0407487182       26.6771745930
  C         3.7135278241        6.3068281282       25.4473619948
  C         6.1658750011        1.4763267454       28.9260362541
  C         8.6821797974        3.3657757533       21.9201349291
  H         8.2518626708        1.5312044177       22.8789687644
  C         9.3025174361        5.1459521135       20.8599432723
  H         3.4933212198        5.4536554398       24.8063588219
  H         3.7709245518        7.0739881989       24.6928279333
  C         2.6797860479        6.5425808284       26.4615332922
  C         6.2508254135        0.1238549868       29.2623209456
  C         5.6623506592        2.2865474808       30.0300147661
  C         9.0915338164        2.7147529437       20.5949097860
  C         9.4828903589        4.0838148868       20.0267563740
  S         9.5549849321        6.7006171066       20.1028885031
  H         1.8455593213        6.9963629990       25.9482183707
  H         3.1343758509        7.3816714950       27.1051720300
  C         2.2787287351        5.2166583827       27.1907697178
  N         6.6329502966       -0.8467795003       28.3509007093
  C         6.0020038909       -0.4563109833       30.5166488282
  C         5.6074014204        1.7665901593       31.3358557268
  H         5.4212716621        3.3416174721       29.8842340684
  C         7.9412121077        2.0846853216       19.8167326951
  C        10.3835658213        1.7841932750       20.6199100190
  C         9.9468814910        4.4996056669       18.7824896744
  C        10.0564911823        5.8891191639       18.6842826009
  H         2.0349562312        4.4286578265       26.4448251094
  H         3.1214595027        4.9212508114       27.7657449953
  C         1.0277107916        5.1799971096       28.0787067759
  S         6.7398979705       -2.3065849169       29.0851783414
  N         6.2046836571       -1.8434855212       30.5214156193
  C         5.6277334664        0.3338228727       31.6329539222
  H         5.2743114285        2.4144907045       32.1247770635
  H         7.6208265600        1.1456957476       20.2161640700
  H         8.2818838647        2.0119293226       18.7798017464
  C         6.6405087180        2.9619734903       19.6211555598
  H        10.3423372997        1.2095864525       19.6800768373
  H        10.2412508577        1.0124177473       21.3575411950
  C        11.6575830424        2.4799986841       20.9114629249
  H        10.0324717023        3.7797884064       17.9698317807
  C        10.5394597061        6.6272071806       17.4301865137
  H         0.6092745304        4.2169481518       27.9489892276
  H         0.3314104518        5.9413737238       27.6098854799
  C         1.3762893212        5.2549540147       29.5578310549
  C         5.3067230741       -0.2765041844       32.8765245193
  H         6.8038831037        3.7488837482       18.8213393467
  H         6.6328411064        3.5815059515       20.5069459136
  C         5.4160131752        2.0821270309       19.5590161950
  H        11.5274036456        3.2056419340       21.7228863876
  H        11.9176010399        3.1137664009       20.0853875591
  C        12.8181148168        1.5517815924       21.3055548502
  C        10.6319561413        8.0484258272       17.2019679867
  C        10.7931066544        5.7740049448       16.1760511372
  H         0.5001783017        5.4153579369       30.1151151105
  H         1.6986071218        4.2151693879       29.6769065905
  C         2.5162033488        6.1814254085       30.1247642010
  H         5.7405035011       -1.2784236796       32.8378014283
  C         4.8049881652        0.1344947991       34.0794459689
  H         4.5254760746        2.7374526269       19.7538804713
  H         5.3638135594        1.2967826640       20.2591550470
  C         5.3778807332        1.6079503618       18.1667628626
  H        12.5319507286        0.7258483662       22.0234962585
  H        13.3803742991        1.0249155888       20.5150988828
  C        13.9867137750        2.4518821289       21.9038976091
  N        10.2337562815        8.9987714557       18.1357671627
  C        10.9597383388        8.6065487259       16.0205848015
  C        11.1731476068        6.3530032856       14.9448950098
  H        10.7185149610        4.6531592766       16.3358756333
  H         3.4128682074        5.6155934369       30.4058148092
  H         2.7820957999        6.9096787034       29.3502561200
  H         2.1880838013        6.7328076651       31.0229989113
  S         4.3161994028        1.7493955518       34.4849423152
  C         4.7107982821       -1.0010674293       35.0510682030
  H         5.5173801371        2.2988339128       17.3891344700
  H         6.1338055881        0.8433219978       18.0338497868
  C         4.1600881112        0.8011158081       17.6729835432
  H        13.6489049494        3.0949950450       22.6589621734
  H        14.4350010708        3.0871960811       21.1889713519
  C        15.1445932982        1.6314742292       22.4515010229
  S        10.2510931429       10.4684741542       17.4150360779
  N        10.8583542921       10.0357376417       16.0136991997
  C        11.3435673716        7.8313084671       14.8630093359
  H        11.4717337361        5.6979875667       14.1590396462
  C         4.0083463762        0.9621629809       36.0668056614
  N         4.2315873098       -0.4260549543       36.1838539837
  O         5.0361873995       -2.1955004998       34.8453248099
  H         4.2967947845        0.5751749776       16.5644814123
  H         3.3203996857        1.5081358546       17.6945574134
  C         3.8770490550       -0.4989008822       18.4914778194
  H        14.6540783390        0.9236411568       23.1568967937
  H        15.6317445324        0.9620369469       21.7403812264
  C        16.1644067520        2.3568404629       23.3035797665
  C        11.5132542614        8.5417110629       13.6532398638
  S         3.4803073529        1.8079043867       37.5046848838
  C         4.2789871729       -1.0830543893       37.4601834425
  H         4.6517559295       -1.1649246546       18.0997741921
  H         4.1785179145       -0.4454832834       19.5996619264
  C         2.3940910463       -0.8693006847       18.2792773063
  H        15.8872115307        2.4492036322       24.3765556448
  H        16.2722201436        3.3890976607       22.8943367721
  C        17.4755509924        1.6658538525       23.2586801717
  H        11.1168617455        9.6116767205       13.6471945655
  C        12.0629867528        8.2074938907       12.4480534554
  H         3.6580482327       -0.5374759058       38.1527881657
  H         3.7602090254       -2.0392647561       37.3168584319
  C         5.5895339072       -1.2705446937       38.0667915484
  H         1.9352366555        0.0811973523       18.5683468113
  H         2.0603261161       -1.6020802663       18.9686531958
  C         2.3991288836       -1.4789936594       16.8130409354
  H        17.8086883329        1.8813631560       24.2547042520
  H        17.3592376982        0.6919841772       23.1064403565
  C        18.5735933476        2.1180967971       22.2998758449
  S        12.5414525140        6.6307348125       11.9892748264
  C        12.0616335218        9.2682591950       11.4135373068
  H         6.1976744783       -0.4591590804       38.3050675605
  H         5.4070822240       -1.9707804320       38.9066683433
  H         6.2535499721       -1.9576672089       37.4941537595
  H         3.1764684069       -2.2501929373       16.6072238596
  H         2.6080723705       -0.7553278726       16.0689235416
  H         1.4306007827       -1.8611951938       16.5025893425
  H        18.7929519717        3.2174699572       22.4191258574
  H        18.2534251975        2.0735740147       21.2674679620
  H        19.4961798765        1.5210331922       22.3764105344
  C        12.6813821760        7.3185109569       10.4017205294
  N        12.5471903795        8.6558870590       10.3019178499
  O        11.7511245005       10.4886784980       11.5672769105
  S        13.0773351948        6.4410917149        8.9723146493
  C        12.8326983944        9.4377812128        9.0856534932
  H        13.0235274390       10.4964378287        9.3126815669
  H        13.7451155422        9.0797561876        8.5416958226
  C        11.6541287718        9.3611935009        8.1056615783
  H        11.0828263402        8.4148327614        8.1479990389
  H        11.0024754932       10.1621465563        8.2978744754
  H        12.0062185730        9.3075109398        7.0760955941
  H        21.1024317711       10.9254284173        2.7446077449
  C        21.7009267563       10.0503223802        2.8550797061
  H        20.9703266691        9.3014165650        3.1277832198
  C        22.8043837162       10.3428501024        3.8886998608
  C        22.3894687068        9.7336086290        1.5644579140
  C        22.1439352867       10.6963432238        5.2353493987
  H        23.4596490017        9.5093983811        4.1207733074
  H        23.5619134005       11.0736278083        3.4894721816
  H        23.0540717510       10.5627366768        1.2561767653
  H        21.6913846410        9.5391596026        0.7607111596
  H        22.9962753787        8.8133721439        1.7734066073
  C        21.6022563146        9.4372078913        5.9614687603
  H        22.8951989910       11.1825635090        5.8805586862
  H        21.4113860071       11.4864561509        5.1299495973
  C        20.6793901939        9.7570738999        7.1199061685
  H        22.4335870006        8.7928213852        6.2901224804
  H        21.0454265902        8.7982320206        5.2610211344
  C        19.1806078066        9.4920466547        6.6712356086
  H        20.7662031525       10.8644547868        7.3818263343
  H        21.0525767744        9.1784507259        7.9278789738
  C        18.1391472236        9.8885769026        7.6765777306
  H        18.9198535052       10.1625584840        5.7850963595
  H        18.9563082505        8.4850334936        6.5078642620
  C        16.9238938491       10.7746914854        7.2088195015
  H        18.5444275213       10.3168475154        8.6137037637
  H        17.8153761416        8.9269596573        8.2265669753
  C        17.2136194658       12.1505567298        6.4238930696
  C        16.3694972199       11.5251777546        8.3700612799
  C        15.9024483344        9.9173671081        6.2964161504
  C        16.8877962563       13.2198553689        7.2226729833
  C        17.6766139777       12.5264658624        5.1667288693
  C        16.2653270174       12.8556234766        8.3902965692
  C        15.9114207761       10.8276599074        9.5064488837
  H        16.4905913270        9.4677641131        5.4554435583
  H        15.5993316803        9.0930302897        6.8604998033
  C        14.6784867556       10.7346620202        5.8294677222
  S        17.2301067093       14.7380873039        6.3776194222
  C        17.7151775835       13.8315877339        4.9936880472
  H        17.7354574482       11.7060680602        4.4498695583
  C        15.9450596072       13.4484476790        9.5650013939
  H        16.0703634420        9.7813337151        9.5616685555
  C        15.5949784342       11.4820112140       10.6451815363
  H        14.9135837651       11.7311172467        5.3846397356
  H        14.0653763977       11.1266444485        6.7014202067
  C        13.7201646946        9.9400318602        4.9138337205
  C        18.2506220348       14.5304352012        3.7258809020
  C        15.6212924935       12.8241591748       10.7735518671
  H        16.0580510823       14.4785681968        9.7019069518
  C        15.2064439874       11.0489591996       11.8581510656
  H        12.6992512031       10.3197462934        5.0489217828
  H        13.8320628826        8.9597120682        5.1640583835
  C        14.0503312482        9.9070261743        3.3753127833
  C        18.3465747076       15.9171617294        3.4328312268
  C        18.6389932350       13.6797473246        2.5240386701
  C        15.3339871836       13.4832819532       12.0655253557
  C        15.1310441245       12.0934065982       12.7753246077
  S        15.1306393228        9.5018300143       12.5900880215
  H        14.5519410770        8.9675579034        3.2386111151
  H        14.7172861899       10.7442562823        3.1677512698
  C        12.8525465899       10.0476296021        2.4638608412
  N        17.9283494876       16.8519252217        4.3724778501
  C        18.6925848814       16.4563736770        2.2221178891
  C        18.9589802516       14.2183727453        1.3014313005
  H        18.7661189957       12.6737910513        2.6115188251
  C        14.1801931635       14.4778182412       11.7569527888
  C        16.5415055124       14.2410909012       12.6605260107
  C        14.7248779556       11.5902809243       14.0300735761
  C        14.7431326431       10.2230550756       14.1185897645
  H        12.1112113097        9.3614749327        2.8489443130
  H        12.4337931720       11.0717214466        2.5571876556
  C        13.2411797220        9.6026154327        1.0241254278
  S        18.0556317318       18.3493810096        3.7174691180
  N        18.5730961067       17.8204484300        2.2536830535
  C        18.9756645564       15.6638233724        1.0479187823
  H        19.3458015074       13.5068978963        0.5921588720
  H        14.4083479033       15.1046697395       10.9139057809
  H        14.0370173789       14.9994741668       12.7385393690
  C        12.9524625573       13.6243575053       11.3502162625
  H        16.8517010939       15.1493261091       12.0925316924
  H        16.2706949532       14.4827802919       13.6797783858
  C        17.7705321973       13.3085664813       12.9588836744
  H        14.3809399517       12.3224746411       14.7704619853
  C        14.5027968731        9.4883603451       15.3974401300
  H        12.8557530771        8.5814172995        0.7929383387
  H        14.3328201160        9.5727809749        1.1232071858
  C        12.9248822140       10.5700980805       -0.0751617916
  C        19.2035975916       16.3634506051       -0.1282376506
  H        13.1009203256       13.1262160919       10.4126356405
  H        12.7601760279       12.8130405655       12.0928716259
  C        11.6845125407       14.3890315979       11.0637081818
  H        18.0420632676       12.7934176721       12.0326691494
  H        17.4701955149       12.5043699598       13.5964954616
  C        18.9347521740       14.1754910119       13.4712913250
  C        14.4031831629        8.0585085379       15.5430568955
  C        14.3471035861       10.2636933690       16.6313954676
  H        11.8899777561       10.9600781167        0.0796110043
  H        13.5980823031       11.4557810835        0.0038339254
  C        13.1570984790        9.9971730127       -1.4999721262
  H        19.1063448799       17.4377774433       -0.1433797526
  C        19.5612208561       15.8574327195       -1.3632010201
  H        11.9730396401       15.1011285441       10.2221024011
  H        11.2562514785       14.9284379290       11.9283980649
  C        10.6182940669       13.4968372629       10.3903304289
  H        19.3161540522       14.5732703962       12.5975263124
  H        18.5606193006       14.9759729015       14.0644405507
  C        19.9178602765       13.4550577050       14.4399602164
  N        14.5655289082        7.1093109751       14.5439975282
  C        14.1148681306        7.4942463758       16.7303762766
  C        13.9377886408        9.6743251594       17.8054653537
  H        14.2893009449       11.3131602365       16.6086506795
  H        14.2303768396        9.7041563584       -1.6820361413
  H        12.9135545087       10.6697103421       -2.3169167793
  H        12.6195705238        9.0794450646       -1.5436668325
  S        20.1174769259       14.2070426501       -1.7520204022
  C        19.4333905183       16.7554775503       -2.5557360050
  H        11.0266338683       12.5793508257        9.8099041002
  H        10.0893847453       12.9965646299       11.2294882030
  C         9.5909094342       14.3084691492        9.6415806215
  H        19.7962323543       12.3697017231       14.4005144094
  H        19.7107968083       13.7563203416       15.4403261975
  C        21.3984099986       13.8659093390       14.1154037526
  S        14.4042584347        5.6187962371       15.2671519861
  N        14.0610828338        6.1292740264       16.7816990785
  C        13.7746565475        8.2438699919       17.9175285109
  H        13.7718871955       10.2527755216       18.6806407887
  C        19.9375231297       14.7386788188       -3.4528776125
  N        19.7889832022       16.0774956839       -3.6577621504
  O        18.9549556592       17.9022925874       -2.5136403863
  H         8.9964316498       14.9371214461       10.2739279352
  H        10.1102510939       14.8996370273        8.8585686790
  C         8.5851013347       13.4285668520        8.8476267915
  H        22.0150379045       12.9591407169       14.4336406753
  H        21.6954378660       13.9070411745       13.0685467347
  C        21.8736309234       15.1038452191       14.9487460100
  C        13.3903849517        7.4844609282       19.0614753040
  S        20.4164450524       13.6115085249       -4.7741300081
  C        19.8272371026       16.7071097952       -5.0316964900
  H         8.9222249187       13.3567163264        7.7804771329
  H         8.5168012932       12.3737125010        9.1909618113
  C         7.1366671692       14.0192289404        8.8657661073
  H        22.5511779963       14.7205919330       15.7062234663
  H        20.9838824447       15.4073908648       15.4623798970
  C        22.5404567826       16.2438572840       14.1857517999
  H        13.4842625543        6.4376007875       19.0524235993
  C        12.7974357824        7.8376716476       20.2574152789
  H        20.4100901639       16.0826061173       -5.6958049151
  H        20.3797185086       17.6360498982       -5.0064710177
  C        18.4147914553       17.0566521903       -5.5800688006
  H         6.5736934267       13.6395905687        7.9422796608
  H         7.1312662544       15.1203803690        8.7804053414
  C         6.4839788005       13.4736770501       10.0896631859
  H        23.6106922547       16.1217909781       14.1450291842
  H        22.2855813483       16.2959269014       13.1724926644
  C        22.3189046050       17.5300733510       14.8473201289
  S        12.3640815937        9.4402936658       20.7371407531
  C        12.5394783800        6.7622580427       21.2613438248
  H        18.4538552981       17.7881487630       -6.3772912465
  H        17.6856570191       17.3403957497       -4.8127393120
  H        17.9515121560       16.1825548853       -6.1682312604
  H         6.3730446870       12.3965758666       10.1116844393
  H         7.1471428483       13.6886346107       10.9845543632
  H         5.5517300509       13.9369574667       10.4131780839
  H        22.5751045361       17.4274764451       15.9030069148
  H        22.7993246979       18.2568689039       14.2774567935
  H        21.3375964373       17.7956513846       14.7633817146
  C        11.8669422969        8.7129144087       22.2356865191
  N        11.9794304240        7.3394638282       22.3159095950
  O        12.9669228008        5.6118582713       21.2040653374
  S        11.3524349365        9.5494636625       23.7554189438
  C        11.9104723125        6.5430893949       23.5105929892
  H        11.5458490067        5.5650042767       23.2366320632
  H        11.1522720822        6.8590688819       24.1584043680
  C        13.1876297863        6.4831156141       24.2838078110
  H        14.0944574012        6.4079679501       23.6547156680
  H        13.1268164465        5.6446334868       24.9313608150
  H        13.2345458544        7.3670540254       25.0217681836
