352
 i =     5400, time =     5400.000, E =        30.4807224773
  H        12.4605604790        5.3428754703       31.9603001846
  C        11.4334040653        5.5617414982       31.8867072478
  H        10.9383598423        4.6403938351       31.5853420376
  C        11.3193151222        6.6696992953       30.8073434098
  C        10.8767852379        5.8678239586       33.3162519691
  C        11.3973080597        6.1728218073       29.3871983860
  H        10.4351158273        7.2151840084       31.0086430688
  H        12.1050786626        7.4396466235       30.8685583913
  H        11.4681430785        6.7151710151       33.7965846539
  H         9.8539110480        6.2625946782       33.3910538763
  H        10.8890141216        5.0888331178       34.0542555224
  C        10.1567940177        5.7919098098       28.7283369723
  H        11.9273833876        5.2557594571       29.3175442759
  H        12.0176331932        6.8504827423       28.7421471076
  C        10.4761352076        5.8280259537       27.2818888797
  H         9.6364308737        4.9839008291       29.1454127104
  H         9.3944764967        6.5465651366       28.9134562848
  C         9.4998449586        5.0125322560       26.3837676544
  H        11.4533101550        5.3595645442       27.1434562276
  H        10.4566830821        6.8035843759       26.9049265702
  C         8.3168119448        5.9829224218       26.0598258348
  H        10.1597120097        4.8075952974       25.5262078180
  H         9.2217408984        4.0592173281       26.8024857575
  C         7.1736471296        5.2887047228       25.2669436716
  H         7.9949418800        6.2730991858       27.0775145626
  H         8.7841324471        6.8262972301       25.5548753476
  C         6.6386831888        3.9621029725       25.9500037153
  C         7.5567387831        4.4668441947       24.0533047605
  C         6.0207097628        6.2391215984       24.8918917245
  C         6.9386442025        2.8437152827       25.2109135121
  C         6.1017984011        3.6507775693       27.1915039118
  C         7.5895426495        3.1662144244       24.0156480537
  C         8.1190636580        5.0620320699       22.9371006626
  H         6.3676122714        7.0592751736       24.2345556306
  H         5.5903705097        6.6207285189       25.8453830424
  C         4.7574680005        5.4857416966       24.4321862774
  S         6.6140859486        1.3776345445       25.9443939031
  C         6.1680822703        2.3193951704       27.4002305240
  H         5.8885173390        4.5132780230       27.7935979104
  C         8.0198582708        2.5053390754       22.9220590204
  H         8.1274167157        6.0951957734       22.8897224697
  C         8.5050575373        4.3704922258       21.8410259798
  H         5.0835557565        5.1462253103       23.5060091627
  H         4.4946411044        4.5790089601       24.9914708233
  C         3.5304838573        6.3252605506       24.3743375919
  C         5.8567307837        1.5780447521       28.6683244608
  C         8.5143530695        3.0510527091       21.7583588023
  H         7.8406835906        1.5035222390       22.7772083726
  C         8.8967323409        4.7503414748       20.5838538472
  H         2.9039285402        6.0540365522       23.5642054327
  H         3.8498465585        7.3140784589       24.0538701444
  C         2.7477337475        6.4269082331       25.7089985045
  C         5.9627158737        0.2135128839       28.9801329958
  C         5.4952700973        2.4506421862       29.8468487882
  C         8.9651024278        2.2888374572       20.4880148377
  C         9.1849516400        3.6646402770       19.7657465861
  S         9.2149402682        6.2548971094       19.8129377744
  H         1.9024096696        7.1088502521       25.6821556524
  H         3.4158310321        6.8721320497       26.4395837350
  C         2.1808396119        5.1600893115       26.2011034982
  N         6.2049713154       -0.7897711571       28.0278600613
  C         5.5576870858       -0.3245042632       30.2031719046
  C         5.1819832183        1.9542215818       31.0981668230
  H         5.2468342460        3.5386824266       29.6913714295
  C         7.8415977024        1.4416555457       19.8941278835
  C        10.2136905397        1.4800596422       20.9558939315
  C         9.7019131728        3.9950312540       18.4691317951
  C         9.8005505500        5.3611615319       18.3810611195
  H         1.3356104848        4.9036036272       25.5438158366
  H         2.9130728503        4.3528012645       26.2154434814
  C         1.5605589860        5.3126997604       27.5725916364
  S         6.1691227717       -2.2289064918       28.8044795768
  N         5.7465337170       -1.7317702948       30.2908889685
  C         5.1823994421        0.4901533059       31.3318783097
  H         4.9276374259        2.5931633140       31.7880772377
  H         7.5610156423        0.6699708827       20.6836396214
  H         8.2089510438        0.7315399546       19.1339400941
  C         6.6539983917        2.2329461419       19.3223905176
  H        10.5402014557        1.1527999850       19.9811311566
  H        10.1101443740        0.6401052763       21.5772197660
  C        11.3531219663        2.3577058076       21.5281426133
  H         9.8043483745        3.1865295648       17.6622574128
  C         9.9809475293        6.1328876817       17.0410630977
  H         0.8806364153        4.5462437211       27.9038795339
  H         0.9607318079        6.1660973125       27.5286877771
  C         2.7065061740        5.3793937856       28.6887351832
  C         5.0998470463       -0.1977579965       32.5876359139
  H         6.8749467374        2.7939093256       18.4616843334
  H         6.3356220186        2.9056424037       20.1268181977
  C         5.4163534351        1.3368883546       19.0694521868
  H        11.0622668355        3.0048931559       22.2387768678
  H        11.5164757939        3.0130897228       20.7061911844
  C        12.6593999594        1.5345898304       21.8170587535
  C         9.9916937834        7.5411296275       16.9134185241
  C        10.1388614841        5.4299099506       15.6875244013
  H         3.0695031804        4.4022168782       28.8482364272
  H         3.5976140691        5.8534151019       28.5283147162
  C         2.0967225031        5.6681387226       30.0808024053
  H         5.3949801819       -1.2008491857       32.6306652369
  C         4.7855251882        0.1790605469       33.8825262363
  H         5.1880473721        0.8203692345       19.9783819849
  H         5.6234882497        0.5855905814       18.3609122955
  C         4.2936041626        2.1667288664       18.6185804233
  H        12.3404380082        0.8683664113       22.5929860486
  H        12.9736075576        0.9936418038       20.9543974249
  C        13.9247213923        2.3814480284       22.3717375632
  N         9.6346738519        8.4054426698       17.9547620322
  C        10.3832410944        8.2306294423       15.8170288439
  C        10.3915577681        6.1237551161       14.5252255629
  H        10.1460912471        4.2427669118       15.6972380750
  H         2.7918925815        5.5556972149       30.8508640648
  H         1.7025711480        6.7702172605       30.2672890176
  H         1.1795156765        5.0314418927       30.2579962126
  S         4.3106323882        1.7338560273       34.3704622484
  C         4.7640993604       -0.8325131037       34.8980183678
  H         4.0406523341        2.9884233221       19.2964805976
  H         4.4317377594        2.6818369158       17.6692887057
  C         3.1544839524        1.1489133429       18.5043617753
  H        13.6750887356        3.3250346950       22.9381475712
  H        14.3906136318        2.7294997396       21.4429257832
  C        14.8833060811        1.5747713520       23.0483402858
  S         9.8543533740        9.9221352981       17.5251617446
  N        10.3353851656        9.6559258316       15.9807477841
  C        10.6512735854        7.6120853894       14.5751479593
  H        10.5248333230        5.5461117924       13.5958570100
  C         4.0850664898        1.0371483880       35.9569326142
  N         4.2829687351       -0.3018679956       36.0251868791
  O         5.1645178653       -1.9454022473       34.7638294441
  H         2.3458703643        1.6357095938       19.0620516273
  H         3.2796677727        0.2661400704       19.1740648926
  C         2.8577889020        0.5646277151       17.0933913274
  H        14.4969339335        1.2366994216       24.0408654763
  H        15.1371169310        0.6615607706       22.5200145370
  C        16.1754346297        2.3676705647       23.3152463470
  C        11.0688848495        8.3804042724       13.4834896466
  S         3.3841672270        1.9407972412       37.3485159325
  C         4.2484578434       -1.0950948373       37.2391486463
  H         2.6154125188        1.3006762496       16.3968277663
  H         3.6825967344        0.1549502247       16.6065636624
  C         1.8985966987       -0.6136719129       17.2303608065
  H        16.0977369912        2.5488641506       24.3952464760
  H        16.1153157392        3.3782153511       22.8723781772
  C        17.4641203981        1.6328956012       23.0955736079
  H        11.2608632498        9.4589681064       13.6515904611
  C        11.5236362049        8.0046929745       12.2039099867
  H         3.5021809665       -0.7315097089       37.8324853105
  H         4.0238906598       -2.1456250305       37.2485394012
  C         5.5733865089       -0.9476006876       37.8882653042
  H         1.4514122268       -0.7433461563       16.2631751524
  H         0.9681266957       -0.3704309396       17.7855222713
  C         2.4375360308       -1.9122891096       17.8365716547
  H        18.0846947999        1.8154254626       24.0277221630
  H        17.5730275014        0.6038734294       22.8369337573
  C        18.2317184085        2.4015308362       22.0369889584
  S        12.1845815465        6.4894020435       11.7282863242
  C        11.6763200877        9.0891584628       11.1716698589
  H         5.9139782461       -1.8834891571       38.3882668992
  H         6.3886993460       -0.6919124806       37.1759618804
  H         5.4999409315       -0.1369157436       38.6496816517
  H         1.4875435467       -2.5104905746       17.9175218487
  H         2.9206179934       -1.7764732289       18.7659701982
  H         3.0598674217       -2.4237660019       17.0939126705
  H        18.4841329787        3.4153222989       22.2799766095
  H        17.6689287758        2.4425543705       20.9918177445
  H        19.0683593520        1.8286697330       22.1319487370
  C        12.5445520742        7.2567136644       10.2144620009
  N        12.3069670749        8.5669088010       10.0687915785
  O        11.2834744649       10.2477852804       11.3420511265
  S        13.1930702220        6.4377220299        8.8314188343
  C        12.4905202183        9.4159768793        8.9766147701
  H        12.7719629625       10.4165973307        9.2753864234
  H        13.3379520399        9.2601788238        8.2136359640
  C        11.1752999684        9.2997014862        8.1314001533
  H        10.2862522597        8.8906078108        8.5183302918
  H        11.0847986416       10.2352600195        7.7046881617
  H        11.3343153539        8.6639595806        7.3903704516
  H        20.5024946735       10.8078674002        3.6181346456
  C        21.2024659660       10.0354021545        3.6348428977
  H        20.7877747885        9.0623922070        3.7836955092
  C        22.2023357923       10.4224381438        4.6276060653
  C        21.8587213144       10.1020568638        2.2860451811
  C        21.4412470973       10.7074396538        5.8683301294
  H        23.0809931584        9.8601752789        4.7805512680
  H        22.6146185291       11.3699547489        4.2603902916
  H        21.2016780297       10.4797905898        1.4652560055
  H        22.2309140358        9.0942587914        2.0361820887
  H        22.7107426929       10.6945316648        2.0983116079
  C        21.0130647473        9.4215092161        6.5576312208
  H        22.1684843280       11.2360868968        6.5109815985
  H        20.5732222319       11.3646576247        5.6196250393
  C        20.4412944155        9.7823911235        8.0098619221
  H        21.8831244144        8.7381544693        6.5874750531
  H        20.3489252391        8.7570258068        5.9630721012
  C        19.1389297986       10.6492977522        7.8888319592
  H        21.1818491011       10.4302555190        8.5510590354
  H        20.1959557486        8.8436438102        8.6203135288
  C        17.9679358926        9.9125297574        7.1513359285
  H        18.8736140245       10.9370891219        8.8983595860
  H        19.3329973011       11.6133217589        7.4573089381
  C        16.7499078172       10.8838575899        7.1227834276
  H        17.7962751779        8.9791926571        7.6759467941
  H        18.1482814798        9.5938881025        6.2039953110
  C        17.1587461374       12.2381150154        6.5237557811
  C        16.3366544891       11.6073016824        8.3928080493
  C        15.6024439047       10.1959428549        6.3006734277
  C        16.8231547505       13.3363291815        7.2519905556
  C        17.7323830910       12.5346953510        5.3226437438
  C        16.3400613252       12.9342499144        8.5070855326
  C        15.8897620416       10.9195983284        9.5779866114
  H        15.9760354019        9.8384603758        5.3830370563
  H        15.2749169149        9.3335715490        6.9254791322
  C        14.3225035274       10.9608506709        6.0937446659
  S        17.1627218344       14.7884644608        6.4805730832
  C        17.7340986310       13.8577709224        5.1357120433
  H        17.9794564700       11.7608907703        4.5754602498
  C        15.9421402783       13.5081286817        9.7020836923
  H        15.7758487860        9.8448319073        9.4384675698
  C        15.4655522615       11.4712310799       10.6854952357
  H        14.5099733109       11.9051867532        5.6206243406
  H        13.7761477586       11.2600688601        6.9751844810
  C        13.3645856526       10.3204478040        5.0733787334
  C        18.1223544717       14.5310587263        3.8836791277
  C        15.5359241726       12.8456621970       10.8375311733
  H        15.9466970370       14.5351045267        9.7179830765
  C        15.0026926455       11.0634011049       11.9073602448
  H        12.5896656486       11.0561761612        5.0114789674
  H        13.0286406025        9.4316582706        5.5125981183
  C        13.9150098358       10.0327673868        3.7538791486
  C        18.0914587782       15.8376623693        3.6453777221
  C        18.5202454679       13.7861730179        2.6571428159
  C        15.1036899456       13.5154977368       12.0975670029
  C        14.8536123197       12.1265515327       12.7721132330
  S        14.5939573049        9.5415502191       12.6632356907
  H        14.2836381859        9.0815244324        3.7423531318
  H        14.7135058577       10.7520547850        3.5186609135
  C        12.8646067470        9.9640767236        2.7129171144
  N        17.7879288193       16.8596989263        4.5877189375
  C        18.2596509581       16.4371595770        2.4540741734
  C        18.6261517634       14.2826422267        1.4423211363
  H        18.6443317315       12.6517188990        2.7167565865
  C        13.7688581234       14.2454873720       12.0046967568
  C        16.2593315710       14.2237994023       12.8177051155
  C        14.6157940972       11.7076223660       14.0827409552
  C        14.4149881356       10.3223161329       14.2341674382
  H        12.3458865415        9.0302922926        2.8361997210
  H        12.1150891223       10.6909599522        2.8495143972
  C        13.5192859660        9.9100585694        1.3829079425
  S        17.8162438524       18.3407259355        3.9527615016
  N        17.9909425015       17.8362575399        2.4369453333
  C        18.5651163332       15.6970627153        1.2793637602
  H        18.9100868709       13.6039316647        0.6542217227
  H        13.9645506468       15.2289536430       11.5247204471
  H        13.6009292146       14.4561351487       13.0361722467
  C        12.6470136718       13.5136550239       11.3007192766
  H        16.5664095821       15.0570905271       12.2039409026
  H        15.9130432597       14.6890271358       13.7085220801
  C        17.5674684011       13.3072303793       12.9998419644
  H        14.5553814020       12.5276844690       14.8112333673
  C        14.1663011030        9.5131767810       15.5052259591
  H        14.1070071640        9.0223565909        1.3938474028
  H        14.2243854245       10.7291085897        1.3248221683
  C        12.4801130349        9.9013263026        0.1628561335
  C        18.8179457313       16.3983448705        0.0675956843
  H        12.9151726030       13.2786524357       10.2621007428
  H        12.4529806182       12.5922215019       11.8398194629
  C        11.3057537177       14.2399593273       11.3041076059
  H        17.8577541879       12.9608468680       11.9961677089
  H        17.2856225958       12.3622084319       13.4141208915
  C        18.7368528831       13.9010032671       13.8828570240
  C        14.0001962211        8.1042831892       15.6068373122
  C        13.8085790031       10.1590251330       16.7672456693
  H        12.3191068331        8.8437649810       -0.0525986340
  H        11.5551523383       10.4479962969        0.3825901541
  C        12.8148252509       10.7786723382       -1.0387373826
  H        18.6860809666       17.4329760551        0.1459019136
  C        19.2169939816       16.0435301488       -1.1919398382
  H        11.4150646077       15.1616193339       10.6892493378
  H        10.9696948290       14.5680884131       12.3291356752
  C        10.1903563923       13.2670976700       10.7682482267
  H        18.8704885696       14.9579177503       13.4375570432
  H        18.3591270801       13.9713065554       14.8699638418
  C        20.0396629420       13.2610959143       13.7103933531
  N        14.2164377606        7.1708114402       14.5715232242
  C        13.6991503894        7.4232294165       16.7374139224
  C        13.5563538804        9.5095126803       17.9698885196
  H        13.8480281992       11.2511135170       16.8285905671
  H        11.9097570148       11.3381051228       -1.3721258730
  H        13.0367079944       10.2738848939       -1.9321233478
  H        13.4988997163       11.5966112775       -0.6556301855
  S        19.4782801185       14.4765765672       -1.8399228933
  C        19.1553565207       17.1205006283       -2.2059487321
  H        10.5041570996       12.7295897487        9.9079312877
  H         9.9575812000       12.5575086030       11.5641682381
  C         8.8593517437       14.0276402649       10.4314771599
  H        20.0486881136       12.4002530754       12.9469818666
  H        20.3891588293       12.8702058759       14.6588380437
  C        21.1059463112       14.1914255781       13.2860083716
  S        14.1438795605        5.6718587881       15.0304512561
  N        13.6394405914        6.0154504125       16.5738787013
  C        13.4495106996        8.0540246437       17.9469870444
  H        13.4350791605       10.0423856033       18.8873092895
  C        19.5877623795       15.2885180109       -3.3993835036
  N        19.5422585093       16.6462488887       -3.3616406380
  O        18.7867996653       18.3142599584       -1.9854707445
  H         8.2123332384       14.1216511284       11.2878516408
  H         9.0837703490       15.1065854085       10.2223194138
  C         8.3288756365       13.5734344688        9.1590518821
  H        21.9644870895       13.5580466857       13.0431859496
  H        20.9217266436       14.7742755486       12.3728398097
  C        21.4609888123       15.1624721709       14.4922338874
  C        12.8427094892        7.1953592093       18.9922663682
  S        19.7911070967       14.4214534022       -4.8539902215
  C        19.3883502513       17.4101467106       -4.5241333278
  H         8.9834382624       13.7208705578        8.2688196546
  H         8.1568349789       12.4754675560        9.1670757377
  C         6.9893888929       14.2161832358        8.8511024497
  H        21.8352592184       14.6143275188       15.2852704034
  H        20.5397888963       15.6675307447       14.8777965652
  C        22.5229293814       16.2235259881       13.9565818559
  H        13.2168380129        6.1974241312       19.0952587277
  C        12.2283846878        7.5443111902       20.1892177272
  H        20.0955951062       17.0568755994       -5.2871777625
  H        19.6041911591       18.4853916407       -4.3650899328
  C        17.9442061404       17.3347542031       -5.1231515216
  H         6.5724225465       13.6946943436        8.0512879693
  H         7.1241046586       15.1669933275        8.2932295525
  C         5.8838330431       14.3528785732        9.9190953608
  H        23.5551457260       16.2220482892       14.4774175492
  H        22.6699380966       15.9213712669       12.9765957783
  C        21.8876994920       17.6046689050       13.9627262982
  S        11.6421356547        9.1345225118       20.6123005735
  C        12.2588043157        6.5561729054       21.3323732242
  H        17.5148490256       18.3423414539       -5.4291393752
  H        17.2041179673       16.8476034682       -4.4561958938
  H        17.9772857689       16.7992943119       -6.0761686752
  H         5.8544981091       15.3559721841       10.4071275402
  H         4.8882317433       14.1900358799        9.5191310885
  H         6.1665381980       13.5761321951       10.6436903463
  H        21.2426855235       17.8443686692       14.7121752329
  H        22.6935287118       18.4606790878       14.1630364611
  H        21.4282274225       17.8458004253       13.0379601970
  C        11.3927326420        8.4763366423       22.2296256664
  N        11.6851158640        7.1346413587       22.3941325896
  O        12.5549081774        5.3739074530       21.1918175901
  S        10.8024573345        9.4318735403       23.5713357732
  C        11.5755698736        6.4637454936       23.7072667354
  H        11.4515233668        5.3571672421       23.4650843065
  H        10.6762539962        6.5586361350       24.3284423097
  C        12.7982029718        6.7439152474       24.6123435917
  H        13.7575792535        6.9639940966       24.0643488715
  H        13.0120737858        5.9384395472       25.3499960752
  H        12.5432921785        7.5533100404       25.2037170253
