352
 i =    85900, time =    85900.000, E =        25.0297567629
  H        10.3593321516        7.3528002296       31.5762218847
  C        11.3616027687        6.9763449818       31.8166771518
  H        11.9032240441        7.8523029135       32.0240620881
  C        11.8950353359        6.4813139565       30.4537580318
  C        11.3144203884        5.9782364730       33.0110714805
  C        11.0084214333        5.5002276271       29.6680031518
  H        11.9672870279        7.3212572969       29.8201310633
  H        12.8475329449        5.9628542941       30.4983870803
  H        10.7422575727        6.2895919968       33.9079800863
  H        10.9376573321        4.9823214801       32.7412470294
  H        12.2904739092        5.7575245027       33.4162163359
  C        10.0595406837        6.1934599394       28.6946997807
  H        10.3400895927        4.8809875752       30.2879819944
  H        11.5723999839        4.7323773709       29.1104280341
  C        10.6594236279        6.2182385620       27.2942072367
  H         9.1780474345        5.5953662207       28.7830542386
  H         9.7193692389        7.2448167980       29.0885322237
  C         9.7153580635        5.4329351115       26.4259085060
  H        11.6866809103        5.9804556141       27.2463344505
  H        10.5785150738        7.1669376898       26.7751923264
  C         8.3665580431        6.1833237247       26.1604401506
  H        10.1619530278        5.2130712845       25.4998731177
  H         9.7763545109        4.5092349034       27.0729780319
  C         7.3835896821        5.2737983288       25.4601621789
  H         7.9126759578        6.6986622751       27.0116630060
  H         8.6571965853        6.9913174682       25.5444225266
  C         7.2100937685        3.9617193025       26.1681106442
  C         7.9813554789        4.5671383338       24.2926250140
  C         6.0305348778        5.8753906069       24.8824287675
  C         7.5831582176        2.8248019038       25.4241780784
  C         6.5918608611        3.6313233455       27.4149649070
  C         8.0725598726        3.1923498563       24.2180734072
  C         8.4826903040        5.2260235538       23.1372041223
  H         5.4596646813        5.1982044313       24.3750691506
  H         6.1591790453        6.6494959516       24.1672922379
  C         5.1363589453        6.4120587340       26.0888425890
  S         7.2430532973        1.4211475957       26.2844679410
  C         6.5910794489        2.2587707954       27.6127486238
  H         6.1726323426        4.3675549296       28.0486726537
  C         8.5957422304        2.5700320056       23.1170111309
  H         8.3821541908        6.2444376931       23.0294098352
  C         8.9189921810        4.5931985243       22.0219944679
  H         5.0367907183        5.7123544592       26.9016184763
  H         5.5236818464        7.3521380592       26.5700880171
  C         3.7345375024        6.7989992561       25.6956775329
  C         6.0570108023        1.6577146603       28.8483900015
  C         9.0116180950        3.2599405038       21.9880076545
  H         8.7570422347        1.4992493312       23.2137315307
  C         9.2928430866        4.9707260848       20.7757362397
  H         3.3635131429        5.9716956834       25.0390868851
  H         3.5511535833        7.7445019170       25.1580205402
  C         2.8062858962        6.8672887551       26.9107621621
  C         6.1267621144        0.2836729095       29.2243479216
  C         5.3251728349        2.4630180136       29.8476454880
  C         9.3976013406        2.5611106667       20.7514481072
  C         9.5976534227        3.9089647786       19.9948573696
  S         9.3981196266        6.4708620545       19.9728706167
  H         1.9056283082        7.4088381720       26.5745071041
  H         3.3597693562        7.3846600761       27.6723980003
  C         2.4549475235        5.4698686173       27.4249717610
  N         6.5286192201       -0.7575548878       28.3727998192
  C         5.7416713394       -0.2147020849       30.4506776322
  C         5.1189209494        2.0461640105       31.2087641959
  H         5.2256396021        3.4905701793       29.6423552989
  C         8.2622278822        1.7694739215       20.0755243930
  C        10.6342959809        1.6936115658       20.7983308484
  C        10.0474587792        4.3080141322       18.7516385708
  C        10.0186974621        5.6845400701       18.6011936767
  H         2.1062357256        4.8693375175       26.5471890038
  H         3.3136386865        5.0322593076       27.8366439453
  C         1.3029949210        5.3974923244       28.4530882104
  S         6.3711397659       -2.1994295490       29.1444139930
  N         5.8235291287       -1.6327613341       30.5825011517
  C         5.3959723139        0.6622185583       31.5293554204
  H         4.6760365842        2.6594250665       31.9678325164
  H         7.9717443491        0.8939831706       20.6627898576
  H         8.5403282572        1.3382051708       19.0923523535
  C         6.9029643088        2.5043219742       19.8947311470
  H        10.7638974323        1.3410478989       19.8450632673
  H        10.5880723074        0.8329721114       21.4614608854
  C        11.8493217140        2.5584138752       21.2771821050
  H        10.5911963140        3.6452750125       18.0963584761
  C        10.2990820808        6.3192823283       17.2930109307
  H         1.1292114802        4.2951216420       28.6722837372
  H         0.3889897735        5.6916774979       27.9885791080
  C         1.5748642934        6.1917553878       29.7758032472
  C         5.0077863892        0.0442664634       32.7728609124
  H         7.0163911765        3.4441384508       19.3088376467
  H         6.6335697209        2.8256936125       20.9021144645
  C         5.6940886287        1.6044043842       19.4578767286
  H        11.5917970949        3.0703251298       22.1395758182
  H        12.0501755278        3.2824546706       20.4813864000
  C        13.0674163152        1.7062948225       21.5324560687
  C        10.2227988721        7.7006420887       17.0994737674
  C        10.5142432629        5.5253021113       16.0087546348
  H         1.9371705531        7.1702426126       29.5208590652
  H         0.6129259197        6.4091389506       30.1681966123
  C         2.4447048953        5.5429055121       30.8424179369
  H         4.9703657418       -1.0318455804       32.6842907674
  C         4.7891702580        0.5409504250       34.0433403725
  H         5.4100166056        0.9621400163       20.2382787438
  H         6.0162112390        1.0105966052       18.6240983199
  C         4.5095087508        2.4321527111       19.0208935004
  H        12.8004246928        0.8817605989       22.2781937877
  H        13.3240897758        1.0933818918       20.6600396289
  C        14.3098493252        2.4690725306       22.0466419183
  N         9.8680103612        8.6774493815       18.0769898595
  C        10.5635853330        8.3110720555       15.9398750613
  C        10.7079085196        6.1325221373       14.8546263833
  H        10.3780209092        4.4702239659       16.0802422375
  H         2.9820724967        6.3163319946       31.4378425090
  H         1.8628810527        4.9386970182       31.5437603268
  H         3.1972627072        4.9593911403       30.3383674068
  S         4.5974718832        2.1918332149       34.4947403128
  C         4.5849079119       -0.4419095631       35.0993368615
  H         4.2159284335        3.3899910079       19.5476983033
  H         4.6701587568        2.7462268961       18.0241000601
  C         3.3132107470        1.5217057702       19.0626430611
  H        13.9928082370        3.1759249674       22.8064988288
  H        14.5473637793        3.1157562398       21.1749990892
  C        15.4737615560        1.6023911291       22.4380235173
  S        10.1292186698       10.1373191081       17.4625177638
  N        10.5636026997        9.7449541280       15.9879811856
  C        10.7877519275        7.5976420902       14.7376015377
  H        10.9327556200        5.4455519362       14.0273782577
  C         4.4351943777        1.5812908661       36.0644995522
  N         4.2542889039        0.2405663582       36.2061970729
  O         4.5827773027       -1.6756315022       34.9918053177
  H         2.4554102409        2.1064526112       19.0631542767
  H         3.2722513221        0.9858287809       20.0329716164
  C         3.3239843357        0.5124191887       17.8842466660
  H        15.1229782730        0.7622460135       23.1206484846
  H        15.9242174499        1.1007697890       21.5724498842
  C        16.5396273873        2.4537924278       23.1517494522
  C        11.0663816494        8.3325028560       13.5580662062
  S         3.8850833831        2.5254855070       37.4217358441
  C         4.2470629481       -0.4408239757       37.4904002106
  H         2.4316258054        0.7389049228       17.3573791398
  H         4.1382047488        0.5234026810       17.1369773818
  C         3.3430596652       -0.9195769462       18.3591255814
  H        16.1062469261        2.9957160908       23.9912286309
  H        16.8156247700        3.1963104806       22.4498453507
  C        17.8437549425        1.7390575894       23.5270417568
  H        10.7014897007        9.3127721735       13.5735432324
  C        11.5869834949        7.9673905238       12.3455206512
  H         3.6357692190        0.0463422157       38.2202194169
  H         3.6445454830       -1.3422497352       37.5144895244
  C         5.7169870276       -0.4966377129       38.0139224856
  H         2.3857132508       -1.1774891464       18.6977097810
  H         3.9919355611       -1.1382002609       19.1376894460
  C         3.4064786613       -1.9886553791       17.2519470252
  H        18.2473873667        2.1511537553       24.4140794381
  H        17.5220541955        0.6903218543       23.6965718100
  C        18.9564038361        1.9378354964       22.4824464249
  S        12.1234574913        6.4349503832       11.8903592080
  C        11.8063940384        9.0274528614       11.3665316127
  H         6.3622484498       -1.0004760440       37.2832455287
  H         6.0779599240        0.4921052104       38.1555688875
  H         5.8670934837       -1.0392700594       39.0227241184
  H         3.2334055160       -3.0322400248       17.5966853243
  H         4.3276324283       -2.0900810051       16.7273060584
  H         2.6534750800       -1.8938897870       16.4758627110
  H        19.8151307598        1.3571654096       22.9085196384
  H        19.2674899362        2.9582640766       22.4192434326
  H        18.6022682308        1.5255074215       21.4994743406
  C        12.6302887662        7.1593450570       10.4053906846
  N        12.4021319732        8.4795553654       10.3082517504
  O        11.3070236919       10.1497156004       11.5029687003
  S        13.0637640104        6.1991239158        9.0129356357
  C        12.7106479277        9.2428516924        9.1124341172
  H        13.0740182890       10.1886817479        9.4734415396
  H        13.5564297122        8.7425121179        8.7024904848
  C        11.5371598899        9.2091853311        8.2151578468
  H        10.5128961686        9.0651844514        8.6898982303
  H        11.3653137301       10.1288011435        7.6184842783
  H        11.7012073318        8.5553386867        7.3341633932
  H        21.3498947761       11.0425949964        3.4490245893
  C        21.7364434482       10.0831852401        3.6000512728
  H        20.8927566756        9.4025481030        3.8660152547
  C        22.7651081105       10.0377052393        4.6461681278
  C        22.3960101947        9.9181231327        2.2573735968
  C        22.3716692941        9.9929998329        6.1316635446
  H        23.3592063320        9.1863048137        4.5088215257
  H        23.2816868322       10.9371540882        4.5376414820
  H        22.2843986429       10.8057678375        1.6320025065
  H        22.0506085404        9.0733613997        1.7371843484
  H        23.4310197006        9.8434934150        2.4761804513
  C        21.8376719484        8.6148704827        6.5004889885
  H        23.1379196138       10.4492124720        6.7191831918
  H        21.5386918306       10.7092399725        6.2112232886
  C        20.6649223428        8.6549781399        7.4230968708
  H        22.6065056319        8.0747417546        7.0829215473
  H        21.5571356377        7.9670546962        5.6702160915
  C        19.2982425658        9.0011307241        6.7466220493
  H        20.9282545619        9.4348316334        8.1141201238
  H        20.5798845409        7.6805468443        7.9165468718
  C        18.2157508903        9.4277891491        7.7293437238
  H        19.5926837175        9.8418732802        6.1407848073
  H        18.9605265039        8.2351572396        6.1180952440
  C        17.1034835940       10.3575890412        7.1970177458
  H        18.7052720656       10.0547376030        8.5300344791
  H        17.7094104734        8.5216446127        8.1186525085
  C        17.5926093316       11.6996710317        6.5981014957
  C        16.5589448718       11.1314785183        8.3986495174
  C        16.0587923434        9.7225090921        6.3025318393
  C        17.2163200948       12.8375360022        7.3012833447
  C        18.2015508484       12.0471322212        5.3827509480
  C        16.6645731742       12.4760674372        8.4868304114
  C        15.9982637017       10.4872547133        9.5518322080
  H        16.5935892862        9.5604387303        5.3333812614
  H        15.7941882674        8.7450201325        6.7823477419
  C        14.7261579877       10.5582282738        6.1861116851
  S        17.7194566895       14.3446454619        6.4960997642
  C        18.2878794135       13.3940751382        5.1631539901
  H        18.4345412650       11.2342861127        4.6687548528
  C        16.1575402456       13.1234184074        9.5547126969
  H        16.1175036978        9.4223744551        9.5690407073
  C        15.5764523320       11.1583749518       10.7019890742
  H        14.9698321290       11.5250786491        5.7408096523
  H        14.3311734353       10.6307371477        7.2005063857
  C        13.6838697998       10.0497378309        5.2432670021
  C        18.6963130893       14.0539114517        3.8719268874
  C        15.6254615828       12.5230784012       10.7069898849
  H        16.2725041103       14.1535715746        9.3646485860
  C        15.0285870678       10.8841979745       11.9359456368
  H        12.7046226380       10.5877671216        5.4210570500
  H        13.3031581970        9.0887617326        5.3243279560
  C        14.0636745079       10.3693192352        3.8152918173
  C        18.6052399429       15.4706159229        3.5855940026
  C        19.1233808142       13.2427170503        2.7271917688
  C        15.1697277945       13.3105656597       11.9087204761
  C        14.8011302314       11.9937109881       12.6639447161
  S        14.6581949118        9.4320528230       12.7733563277
  H        15.0819703210       10.6338744775        3.7625168357
  H        13.4370507793       11.1718582366        3.3726744740
  C        13.8880067859        9.2633266771        2.7777073459
  N        18.3478963482       16.4685494222        4.5386676335
  C        18.8323602052       15.9987437555        2.2892726403
  C        19.3002586378       13.7827439173        1.4002898347
  H        19.3271734121       12.2022863851        2.8762174370
  C        13.9867818054       14.3051273296       11.4788821677
  C        16.3693932906       14.0178391884       12.6034636487
  C        14.4104198779       11.7066564207       13.9966476827
  C        14.3743643639       10.3328096121       14.2275319535
  H        14.5964490290        8.4276350413        2.8845726783
  H        12.8608917454        8.8655519083        2.8662914566
  C        14.1853990132        9.8303874737        1.3634251590
  S        18.3419500778       17.9361697378        3.8360638708
  N        18.6092962535       17.4156885059        2.2841419134
  C        19.1031820796       15.2594984057        1.1461114909
  H        19.5210643785       13.0450465890        0.7020522442
  H        14.3664806869       15.0980272129       10.8071094444
  H        13.7318199918       14.8311274392       12.4244692557
  C        12.7708939571       13.5382856527       10.9800869619
  H        16.6063819379       14.8257369918       11.8585185445
  H        16.0932810263       14.5032871399       13.4951383392
  C        17.5875581585       13.1733825989       12.8496796240
  H        14.1824343983       12.5116804541       14.7063988073
  C        13.9877849191        9.5789283371       15.4886447830
  H        15.0979122554        9.4452308901        0.9611133630
  H        14.4175864182       10.8749612766        1.4096914727
  C        13.0849818273        9.4792632253        0.2979495769
  C        19.2719103144       15.9087431237       -0.1098254321
  H        12.9914012570       13.0199753872       10.0039667023
  H        12.5407656527       12.7847825570       11.6935551851
  C        11.5832106561       14.2981768681       10.5366616757
  H        18.0513359507       13.2153547722       11.8204284874
  H        17.5435622657       12.1586302615       13.0677786549
  C        18.5221440722       13.6912151419       13.9861058058
  C        14.0266402708        8.1990912429       15.6811341236
  C        13.8115861529       10.4512006044       16.7416811274
  H        12.8708616349        8.4013381394        0.1970586870
  H        12.1272894992       10.0236291513        0.4915986894
  C        13.4986509526       10.0271814547       -1.1291619541
  H        19.2854105753       16.9704132818        0.0110458753
  C        19.6162554801       15.4877008374       -1.4011671103
  H        11.9911215619       15.1297493296        9.9560878638
  H        11.1323154608       14.8339348731       11.3512174829
  C        10.4743722531       13.3988791640        9.9089834781
  H        18.7581875057       14.7572088637       13.7688698711
  H        18.0348957697       13.7026031561       14.9265847924
  C        19.7967756518       12.8711132980       14.0595684110
  N        14.3884542006        7.1777389907       14.7099167112
  C        13.7497839464        7.5905428993       16.8923475890
  C        13.5047501017        9.8184771227       17.9961786639
  H        13.6632151800       11.5073588764       16.6935187202
  H        14.5029260631       10.0684516000       -1.2862896598
  H        13.1211652202       10.9974378584       -1.3317930942
  H        13.1233857841        9.3681509575       -1.9163002878
  S        19.9177875215       13.8082455864       -1.9177639957
  C        19.6962689426       16.4790560745       -2.4597991004
  H        10.8044841780       12.9821407388        9.0017103516
  H        10.2849685690       12.6708369766       10.6489669628
  C         9.1720642489       14.2725330919        9.6658515136
  H        20.3529556722       12.8516636377       13.1116901388
  H        19.5842453708       11.7972685126       14.2766838030
  C        20.6748034146       13.4877849915       15.1194639169
  S        14.2951097955        5.7525449448       15.3301084851
  N        13.8459190133        6.1818701328       16.8626709071
  C        13.4676100809        8.3241380540       18.0955359132
  H        13.2884656931       10.4128356336       18.8839536131
  C        19.9384807370       14.5164885125       -3.5396768422
  N        19.9222387629       15.8935171219       -3.6706739228
  O        19.5375674769       17.7072125571       -2.3537566955
  H         8.7185039793       14.6550503263       10.6257421687
  H         9.4494260674       15.1558324995        9.0935607173
  C         8.1657193957       13.4211334408        8.9266366495
  H        20.0526895583       13.8426363949       15.9638359515
  H        21.2299113375       12.7901693994       15.6811985592
  C        21.6033752224       14.5536219108       14.4793101176
  C        13.1341200069        7.6127029037       19.2517158752
  S        20.4422993269       13.6191538202       -4.9834500336
  C        19.8471548257       16.5312257571       -4.9492724472
  H         8.6234307316       13.0856485093        8.0680446035
  H         8.0838509606       12.4673623099        9.3989165519
  C         6.7769645968       14.0257091243        8.5917268719
  H        21.2418754958       14.7817671223       13.4597127812
  H        22.5201251809       14.0450545508       14.2068717635
  C        21.7651571728       15.8637453225       15.2745989837
  H        13.5419993880        6.6189137070       19.2762399260
  C        12.6376629761        8.0340003244       20.4761791526
  H        20.4341474885       16.0515578222       -5.7351788553
  H        20.2849352708       17.4966070380       -4.8910081794
  C        18.3555204521       16.7844292986       -5.4039146217
  H         6.2186964162       13.4097423439        7.8621784619
  H         6.9057068565       15.0676312094        8.3087623653
  C         5.8513575841       13.9346198897        9.8123278606
  H        20.7727111078       16.3329092298       15.4688359860
  H        22.1184005639       15.4677195393       16.2250531626
  C        22.6061350680       16.8838256427       14.4395600670
  S        11.9092979937        9.5862878714       20.9729690836
  C        12.5193874721        6.9360069480       21.5071521734
  H        18.0783073926       16.0380088473       -6.2054293191
  H        18.3219238268       17.7807414306       -5.7884412661
  H        17.5784062188       16.6798590803       -4.6505466161
  H         5.7730775339       12.8507520456       10.1745531368
  H         6.1935359514       14.6272261565       10.4840848076
  H         4.9050311383       14.3459473009        9.4408934846
  H        22.8307525679       17.8488710191       14.8934051297
  H        23.5834021978       16.4271529023       14.3102250360
  H        22.2047318848       17.0030651318       13.4971703687
  C        11.5469791509        8.7809773755       22.4844475301
  N        11.9353113161        7.4637614381       22.6368289218
  O        12.9876705912        5.7928758777       21.3637559226
  S        10.7150031412        9.5739575635       23.8250481388
  C        11.8610544052        6.8404919613       23.8677539013
  H        11.9007039099        5.7646557453       23.6224051773
  H        10.9459522512        6.9090229209       24.3856111255
  C        13.0131956125        7.0576802419       24.7975910732
  H        13.2349740106        6.0606021914       25.3351049690
  H        12.9123415115        7.8339470586       25.4930074441
  H        13.8695359083        7.1400240927       24.1758861092
