352
 i =    73700, time =    73700.000, E =        25.2532117663
  H        10.0986191610        7.2966229701       31.6378720587
  C        11.0305484317        6.8185638630       31.9758635422
  H        11.6785875948        7.7105724287       31.8882674470
  C        11.2727690239        5.7432373882       30.9285174956
  C        10.7941041946        6.2291376801       33.3798678568
  C        11.2823247697        6.2734846139       29.5391404777
  H        12.2786845128        5.2544867725       31.0167119877
  H        10.4954655890        4.9980527343       30.9062691847
  H        10.7541647151        5.1273760089       33.3601144714
  H        11.5779643351        6.5983897537       34.0904111749
  H         9.8601826750        6.6031714696       33.8510076916
  C        11.0162099371        5.2049065188       28.5046663968
  H        12.3793882735        6.5733340383       29.4541092840
  H        10.6565603768        7.1755974955       29.5300884282
  C        11.2161090345        5.5207717898       27.0759618933
  H        11.5111785117        4.2961373404       28.6876459719
  H         9.9741952127        4.8853162541       28.5929778885
  C         9.9654341142        5.0087806482       26.2300652103
  H        12.1672700116        5.0527772142       26.7769164740
  H        11.3708601351        6.5585867341       26.9937167309
  C         8.6645833665        5.8463063423       26.3164953470
  H        10.1684759569        4.9795006763       25.1646465665
  H         9.8123017668        3.9468979874       26.4362474382
  C         7.4222759463        5.1389038126       25.5329181723
  H         8.3841938857        6.0183816768       27.3429517778
  H         8.9906978476        6.7784165276       25.7979562804
  C         7.1191581101        3.7488971752       26.2659045604
  C         7.7977239312        4.4184623016       24.2798165576
  C         6.2421079568        5.9787027373       24.9873691653
  C         7.3615437527        2.6417013273       25.4824030320
  C         6.8076546257        3.3021150330       27.5920169430
  C         7.7499041825        3.0403782856       24.2448628014
  C         8.2728812242        5.0682699763       23.1074384561
  H         5.9189351615        5.6104773453       23.9538154349
  H         6.5740509828        7.0648354147       24.7714519614
  C         5.0082589509        5.9675077657       25.8999141915
  S         7.0571905957        1.0471941767       26.2374085823
  C         6.6276848326        1.9304411395       27.7060748044
  H         6.8316361963        3.9329450597       28.3735390169
  C         8.1243182963        2.4440129178       23.1110981093
  H         8.0771018207        6.0359076396       23.0125631597
  C         8.5894498697        4.4106679843       21.9637648226
  H         4.7961224570        4.9070449900       26.0776938922
  H         5.1542185892        6.3088142339       26.9233815456
  C         3.7861896156        6.3774879096       25.2188096555
  C         6.1184086020        1.3095361269       28.9872601154
  C         8.4718028411        3.0663618310       21.9060275369
  H         8.0141424725        1.3581996840       23.2875673453
  C         8.9412009520        4.7840731037       20.6897273603
  H         3.4375127094        5.6543768737       24.4450386228
  H         3.9546509948        7.2614639944       24.6107765167
  C         2.6737374565        6.6676839679       26.2417481325
  C         6.1163246784       -0.1033151196       29.2447778300
  C         5.6058778259        2.2097515237       30.0218182355
  C         8.6957968904        2.3051619356       20.6046812207
  C         8.9664484127        3.6642495132       19.8935838685
  S         9.2630621332        6.2398816178       19.8425541338
  H         1.9284930345        7.4467639154       25.8962088773
  H         3.0934835131        6.9394988894       27.2245879191
  C         1.8220415445        5.3868845938       26.5692549602
  N         6.4432052313       -1.0722231510       28.3331951974
  C         5.7096828483       -0.5577470794       30.4748364026
  C         5.2769033573        1.7552774194       31.2607102806
  H         5.4559176843        3.2681888089       29.7958687365
  C         7.5093932082        1.6123522303       19.9198508866
  C         9.9569976902        1.4344954340       20.6634193014
  C         9.2945504262        3.9790747941       18.5595742303
  C         9.5344043512        5.3304785110       18.3859295423
  H         1.5762183907        4.9746443423       25.6072924993
  H         2.4014951333        4.6185348984       27.0035132774
  C         0.5268904568        5.7719968839       27.2342039601
  S         6.4128321435       -2.5205029319       29.1059082457
  N         5.8322649455       -1.9364624761       30.5882568355
  C         5.3733107512        0.3034731210       31.5364157639
  H         4.9977096617        2.4652605660       32.0086380925
  H         7.1436948489        0.7830011852       20.5826359819
  H         7.9198355700        1.0997550118       19.0728486988
  C         6.3078441819        2.5239874957       19.5245785665
  H        10.2467222575        1.2225686664       19.6244372409
  H         9.8047890015        0.5466262912       21.1942263482
  C        11.1503979270        2.2301963864       21.1979882088
  H         9.5401395121        3.1730764367       17.8711998009
  C         9.8263087666        6.0044787714       17.0903016182
  H        -0.2309329077        5.4702480464       26.5182658244
  H         0.5350484346        6.8423163373       27.3329032864
  C         0.3785532944        5.1685626648       28.6494022111
  C         5.1459445272       -0.2083171418       32.8398744157
  H         6.5856168656        3.1505806665       18.7321738680
  H         6.1206864910        3.2373694260       20.3562006424
  C         5.0566684032        1.7031006434       19.1521158885
  H        10.9198663394        2.6032055336       22.1698157689
  H        11.3569306958        3.0943702677       20.5247156798
  C        12.4656295863        1.4632209552       21.1814877128
  C        10.0140070130        7.4070433470       16.8609514884
  C        10.0420438598        5.1174294691       15.9524040413
  H        -0.6516468010        5.0592408878       28.8518164764
  H         0.5855605240        4.1650866484       28.4348985828
  C         1.2545172207        5.6650086919       29.7551989279
  H         5.0646161463       -1.3127472621       32.8115857653
  C         4.9406302853        0.3918061268       34.0696097399
  H         4.2652028014        2.4278737865       19.2511703419
  H         4.8871026558        0.8492676285       19.7779849089
  C         5.1766765849        1.3386083989       17.6423536604
  H        12.4132242727        0.5850950925       21.7651613621
  H        12.8712770891        1.1539167784       20.2294704014
  C        13.5235212342        2.3026950341       21.8546474480
  N         9.7905836500        8.3277345546       17.8841595742
  C        10.2602467317        7.9339179010       15.6632075187
  C        10.2872359212        5.6519828620       14.6663083864
  H         9.9849585057        4.0560423740       16.1059861906
  H         1.2587617522        6.7671056577       29.6245193568
  H         0.9058584558        5.4929318154       30.7325620778
  H         2.2675764571        5.1968986454       29.7170203077
  S         4.4949157259        1.9902399269       34.4870100900
  C         4.9986120484       -0.5825126376       35.2121842078
  H         5.4021425021        2.1993117987       17.0604228803
  H         6.0247839178        0.7137651324       17.3744546821
  C         3.7650723152        0.7638698336       17.2172371103
  H        12.9938655788        2.9519909394       22.5169688453
  H        14.0500116182        2.9130237042       21.0590063413
  C        14.6456905830        1.5197125221       22.6178396961
  S         9.8421739730        9.7870445001       17.2443091679
  N        10.2836202674        9.3419760000       15.7818599059
  C        10.4794456179        7.1383888514       14.4829388614
  H        10.4594967585        4.9631182351       13.7736847258
  C         4.4183815800        1.3846345081       36.1507012249
  N         4.7037478642        0.0876061384       36.3379563484
  O         5.2260883696       -1.7958614734       35.1590575171
  H         3.7550882984        0.5002327115       16.1667970546
  H         2.9589503717        1.4818306586       17.3192415065
  C         3.3583938156       -0.4938833219       17.9688471634
  H        14.1089293602        0.8326875269       23.3394777097
  H        15.1998137309        0.8535399363       21.9515150390
  C        15.5536689485        2.5758057982       23.2730575873
  C        10.9209516744        7.8506343564       13.3309793696
  S         4.0704025433        2.5038465456       37.5796979748
  C         4.7701282832       -0.5179737632       37.6972163061
  H         4.1589511095       -1.0747175588       18.2683909010
  H         2.9590197720       -0.1906955653       18.9367993583
  C         2.3480759500       -1.4497027143       17.3344508887
  H        15.0157919908        2.8303879543       24.1659798053
  H        15.7612865876        3.5329267904       22.7043381609
  C        16.8828190758        1.8911523998       23.5462440365
  H        10.9501347508        8.9279358902       13.4140108716
  C        11.4109301188        7.5153917261       12.1083094287
  H         4.1509167722       -0.0259998789       38.4641417559
  H         4.3710098605       -1.5677619247       37.7379439305
  C         6.1762385686       -0.7455909395       38.0590029345
  H         1.4155677242       -1.0177662147       16.9622432252
  H         2.0806927903       -2.1924005750       18.1224971381
  C         3.0131957522       -2.2474525790       16.2999645039
  H        17.2649758985        2.3678362637       24.4056911570
  H        16.6624021609        0.8200527692       23.9073203411
  C        17.9227406816        2.0842883520       22.4724065357
  S        11.9294602650        5.9046517309       11.6881671346
  C        11.5483745426        8.5102070011       11.0717619009
  H         6.0522993995       -1.2398196430       39.0417875528
  H         6.6856850763       -1.5089797747       37.5050152813
  H         6.8400895658        0.1624134195       37.9686027132
  H         2.3472702017       -3.0030997808       15.8835038072
  H         3.8957526166       -2.8610150732       16.6203963794
  H         3.4542475281       -1.5404014330       15.5835872628
  H        18.9299124428        1.8121831523       22.8715069032
  H        18.2182950193        3.1539896778       22.1303408679
  H        17.7901269008        1.3256099277       21.6708037834
  C        12.4337827699        6.6100289415       10.2084939986
  N        12.2301837951        7.9622855383       10.0553364275
  O        11.3117573506        9.7190412574       11.2340074416
  S        13.0892165812        5.6362153995        8.8453071774
  C        12.6113375016        8.8212051729        8.9289060166
  H        12.7574123497        9.8384555792        9.2970004828
  H        13.5849479585        8.5413619232        8.3803905563
  C        11.4900236813        8.7934848463        7.8690275799
  H        11.4273517815        7.9208559460        7.2381485096
  H        10.5623161080        8.7815671854        8.4220958562
  H        11.3729508821        9.5860866281        7.2158675773
  H        20.8355497816       11.8619399806        2.9303097724
  C        20.8648164239       10.8899446641        2.6043126527
  H        20.0175536343       10.3503708198        2.8811643561
  C        22.0762018436       10.2852464223        3.2517713312
  C        21.0471023969       10.9277597095        1.0997071938
  C        21.8527262620       10.0732971271        4.7986118609
  H        22.3695984786        9.2463614017        2.8365962107
  H        22.9202294955       10.9840227581        3.1850579778
  H        20.8381704679       10.0150967577        0.4889335593
  H        22.0683479977       11.3192495501        0.7910567087
  H        20.3118557192       11.6365147659        0.7108413355
  C        21.0268259834        8.9173597553        5.2176724194
  H        22.8642247565       10.0306167438        5.2776159487
  H        21.4251944680       11.0330442342        5.0734981714
  C        20.0953667035        9.3887499994        6.3703098157
  H        21.5538277654        8.0905504054        5.5958987390
  H        20.4056580693        8.5137996947        4.4266692210
  C        18.6878209518        9.9130620179        5.9443702718
  H        20.7539537587       10.0814460142        6.9726259079
  H        19.9035081351        8.4701714223        6.9399869324
  C        17.8008772300       10.1383304711        7.2097836399
  H        18.7274755163       10.7096910514        5.2063477192
  H        18.2904406148        9.0978292546        5.4207497499
  C        16.4905037988       10.7562118339        6.8370867004
  H        18.3404583082       10.8291683297        7.7718392218
  H        17.6752414533        9.1850037982        7.7608153906
  C        16.7948846743       12.0659357314        6.1427361256
  C        16.0593858275       11.4535302484        8.0389797413
  C        15.3730034872        9.9736426325        6.0698984152
  C        16.6579531939       13.1150534321        7.0011250780
  C        17.1146723862       12.5412608669        4.8454575353
  C        16.1191775682       12.7601534439        8.2108449198
  C        15.7463123502       10.7138633966        9.2051233829
  H        15.8840190347        9.6068443932        5.1902832975
  H        15.2315062366        9.0607557844        6.6942766561
  C        14.1099575814       10.7320553861        5.7206748380
  S        17.0845182122       14.6792606368        6.3890153816
  C        17.3525146409       13.8870939111        4.8338746900
  H        17.0987799164       11.8165236210        4.0307446473
  C        15.7010267462       13.3518874336        9.3639152368
  H        15.6582157981        9.6507635779        9.0203037264
  C        15.2819119420       11.3080414273       10.3566408206
  H        14.3066316361       11.5911833948        5.1539547358
  H        13.6900205981       10.9738907410        6.6883829893
  C        13.0882901805        9.9040112064        4.9607295737
  C        17.9484608926       14.5123576817        3.6654243751
  C        15.2957260113       12.6115788399       10.4615764671
  H        15.7232774043       14.4064901720        9.3210263187
  C        14.8739342433       10.8786791632       11.5559124764
  H        12.1335119131       10.5060855995        5.0159949979
  H        13.0152206130        8.8885795521        5.3862019827
  C        13.4655660514        9.8528718098        3.4961874232
  C        17.8793376032       15.8864198329        3.3937215202
  C        18.4121375719       13.7086268109        2.5388470780
  C        14.8454824167       13.2938558471       11.6522773314
  C        14.6293259383       11.9753947351       12.3622265942
  S        14.5820464733        9.3893076957       12.3151694577
  H        13.9668020844        8.8918044665        3.1740513291
  H        14.0851916419       10.7270462690        3.1802127795
  C        12.1191845938        9.8360030538        2.7518991921
  N        17.3018045938       16.8797216574        4.2608098063
  C        18.2125265518       16.4911453299        2.1926183408
  C        18.8285019432       14.2887337487        1.3345935605
  H        18.5801654412       12.6495459238        2.6556309439
  C        13.5001831920       14.0728947187       11.3577277869
  C        15.8902313151       14.0977138818       12.3150682529
  C        14.3620715130       11.6217098101       13.6498570720
  C        14.3286845464       10.2673200717       13.8038668222
  H        11.3850073456        9.3351452003        3.3216716915
  H        11.7549765157       10.8766911325        2.6941229506
  C        12.1716787338        9.2782595376        1.3390614168
  S        17.4861584284       18.3254848779        3.5963465095
  N        18.0711124919       17.8119364979        2.1229769644
  C        18.6892710325       15.7510161554        1.0989250454
  H        19.2733912596       13.5902102866        0.6222350626
  H        13.6088057408       14.7430096333       10.5051369123
  H        13.2733000129       14.6214324649       12.3010559403
  C        12.3525700646       13.1295934770       10.9958641154
  H        16.1340224497       14.8188386103       11.6583852154
  H        15.3982133180       14.4752865491       13.1969392470
  C        17.2059853487       13.2985063703       12.6491427129
  H        14.0836249529       12.3576802340       14.3393878535
  C        14.0781653826        9.5036975574       15.0967096545
  H        11.2224075652        9.2408119985        0.8837707459
  H        12.4114131531        8.2173287956        1.4251347392
  C        13.1987502268       10.0859744292        0.5150225397
  C        18.8677290789       16.3857057485       -0.1941580973
  H        12.6038885227       12.6021328363       10.0782979807
  H        12.2642768543       12.2388168825       11.6637197532
  C        10.9967471609       13.8080008677       11.0127990605
  H        17.5140002526       12.6857622563       11.7730791074
  H        17.0261162308       12.6343713833       13.4496032026
  C        18.2965044755       14.1493157986       13.1254194351
  C        14.0079409397        8.1174536627       15.2555353884
  C        13.8867905761       10.2756217738       16.3855374957
  H        13.6653775798       10.8462786546        1.0428368473
  H        13.9924352763        9.2641274261        0.3421468855
  C        12.5396501292       10.5271717587       -0.8594268072
  H        18.6863432169       17.5020620519       -0.2360273196
  C        19.1986008266       15.8884369836       -1.4222306723
  H        10.9957845635       14.6946070202       10.2760202725
  H        10.8961104582       14.1681266299       12.0440242394
  C         9.8412893986       12.7880687915       10.7811713657
  H        18.6436145986       14.8068427021       12.2824300888
  H        17.8334859824       14.8335169860       13.8799784189
  C        19.3658130552       13.3499181303       13.7766436704
  N        14.1909450902        7.1431064582       14.2689104670
  C        13.5862377094        7.5330807349       16.4505227535
  C        13.4609726205        9.6897949873       17.5950083245
  H        13.8172967676       11.3503405555       16.3865463904
  H        12.4927931792        9.7101436372       -1.5604963995
  H        13.0744508229       11.4136155108       -1.2578980999
  H        11.5209289599       10.8562273701       -0.7336572351
  S        19.4917268870       14.1915855416       -1.8143314750
  C        19.2423154895       16.7830664519       -2.5522717281
  H        10.1563612947       12.0123749265       10.1349638842
  H         9.5052406384       12.3967918545       11.6993374294
  C         8.6851549066       13.4829084049        9.9946126589
  H        20.0433055437       12.8233293352       13.1078206535
  H        18.9275601140       12.5047344962       14.3437357232
  C        20.2181174601       14.3054103809       14.5885693939
  S        14.0666922800        5.6185868782       14.8332469152
  N        13.4582834724        6.0818352408       16.3017811753
  C        13.3880645187        8.2395819429       17.6602807259
  H        13.2143731978       10.3415015344       18.4043717445
  C        19.7597620751       14.7447488162       -3.4784279676
  N        19.6800738491       16.0696687869       -3.6544193605
  O        19.0247080116       17.9906837615       -2.5170948299
  H         8.1155082796       14.0286569324       10.7280069270
  H         9.1644818444       14.2064556433        9.3590231222
  C         7.8379222509       12.5762233203        9.1906948509
  H        19.6183214832       14.8581969108       15.3487062952
  H        20.9393892597       13.6998457154       15.0791532722
  C        21.0250620875       15.3242721547       13.8412233682
  C        13.0294515104        7.3547811377       18.8057163938
  S        19.9280563330       13.7603395205       -4.9376263335
  C        19.6307194378       16.7432913198       -4.9479062932
  H         8.4102185730       11.9809733159        8.4672300811
  H         7.3945817857       11.8061976972        9.8358516624
  C         6.8617358178       13.3872863637        8.3582680385
  H        20.4006721460       15.8382662197       13.1063434197
  H        21.7808621705       14.8006745365       13.3055500553
  C        21.5908997875       16.4353371951       14.6547121655
  H        13.2510516554        6.3483908849       18.7081718602
  C        12.5468649056        7.6555872197       20.0098261825
  H        20.4440682435       16.4705642352       -5.5780221132
  H        19.8189411209       17.7680509290       -4.8696387185
  C        18.3215984684       16.5240754436       -5.6568466475
  H         6.4617377678       12.8784092453        7.4587944985
  H         7.4205449611       14.2171808500        7.9828490570
  C         5.7835335289       13.8969358131        9.2727264622
  H        21.3258266684       16.2147199444       15.7417753429
  H        22.6813335894       16.5150492286       14.7050408556
  C        21.2060558039       17.8366385479       14.3160671606
  S        11.9940219011        9.1695968424       20.5051022441
  C        12.4585101764        6.5963863340       21.0629467718
  H        18.3574053405       17.0180818881       -6.6275913229
  H        17.6367629796       17.1417435688       -5.1029325383
  H        17.9234137884       15.5153069578       -5.7420704722
  H         5.3617386992       13.2541737099       10.0419536220
  H         6.0546191340       14.8416239973        9.7968140528
  H         4.9187767238       14.1438538957        8.6647957413
  H        21.4197479378       18.4887726235       15.1413724730
  H        21.8048920155       18.3328857902       13.4966807972
  H        20.1663223456       17.9700974710       14.1180788169
  C        11.5674504095        8.4311427808       22.0370596561
  N        11.8284641781        7.0698349313       22.1775432960
  O        12.6885754823        5.4317299046       20.7452709296
  S        11.0823742671        9.4245753057       23.4270972479
  C        11.7914243561        6.2615031415       23.3743921104
  H        11.4556417671        5.2550584053       23.0803103902
  H        11.0250807967        6.5754562512       24.0894912123
  C        13.1638511828        6.1354167590       23.8899253504
  H        13.7132410621        5.2730139957       23.6046688132
  H        13.1050999244        5.9909834853       25.0009048098
  H        13.7451320209        7.0393185404       23.7102108225
