352
 i =    31000, time =    31000.000, E =        25.3359871067
  H        12.3991069715        5.2009283009       32.5322086369
  C        11.3122364470        5.5138820468       32.3949499801
  H        10.6865110577        4.7183387189       32.0908447979
  C        11.3035376771        6.5927148473       31.3795069355
  C        11.0514642946        5.9536174553       33.8484480550
  C        11.5188635501        6.0561100671       29.9377648704
  H        10.3760741500        7.1640753231       31.4769414759
  H        12.1820466461        7.1926249848       31.5956786136
  H         9.9713207663        6.1541917243       33.8785442843
  H        11.2110176926        5.1913818659       34.5741950284
  H        11.7465183005        6.7674285211       34.0980207410
  C        10.3230024324        6.2775829983       28.9716546431
  H        11.6206513617        4.9347234683       30.1198527654
  H        12.4500561686        6.4257482250       29.4828590444
  C        10.6958549044        5.9215963273       27.5469381216
  H         9.5050043446        5.5625149489       29.2890074622
  H         9.8759942487        7.2416516544       29.0481344210
  C         9.5751356248        5.3126103358       26.6902925544
  H        11.5328441889        5.2035944019       27.5589793938
  H        11.0134364997        6.8580743181       27.0463629517
  C         8.4237703465        6.2377721142       26.2664683016
  H         9.9997747716        5.1608662498       25.6375840740
  H         9.2897547144        4.3434321262       27.0066609573
  C         7.3175218536        5.5090813878       25.4434820359
  H         8.0114968358        6.8134724097       27.1189233441
  H         8.9527912758        6.9549749946       25.6159906019
  C         6.9165448709        4.1685026024       26.1759211726
  C         7.8150785082        4.7032568269       24.2721444203
  C         6.1277632510        6.4057428354       25.0691855098
  C         7.2671637161        3.0147749188       25.4292606697
  C         6.3762205408        3.8854049310       27.4265325350
  C         7.7670755970        3.3542160609       24.1923071982
  C         8.3807921107        5.3511391079       23.2114810768
  H         6.3621240785        7.2157109215       24.2908221417
  H         5.9229042053        6.9426785365       25.9933291504
  C         4.7615662916        5.7513540353       24.7128192769
  S         6.8181282677        1.5988077309       26.2109166073
  C         6.2414037418        2.5341255150       27.5926352903
  H         6.1470273340        4.7146500142       28.1270482002
  C         8.2141219314        2.6926089830       23.0795346348
  H         8.4845206819        6.4031088182       23.2588077537
  C         8.5643108637        4.7323027208       22.0079632612
  H         4.8655782861        5.3722206477       23.7074343266
  H         4.5942812556        4.8497800322       25.3834020866
  C         3.5385689420        6.7012936279       24.5474338722
  C         5.8047013914        1.7964089289       28.8287938514
  C         8.5878262079        3.3317588970       21.9024606134
  H         8.1803242294        1.6591104286       23.1037227131
  C         8.9397043141        5.0637127908       20.6374926421
  H         2.8284720847        6.1587819775       23.8770755924
  H         3.7809893891        7.7330077163       24.1583311353
  C         2.7687225741        6.8909189363       25.8711600185
  C         5.8597515365        0.4222944673       29.1195937602
  C         5.3617013395        2.6060888951       30.0037493725
  C         8.9307212921        2.6154846829       20.6247658571
  C         9.1643171663        3.9302035297       19.8690243725
  S         9.1833572568        6.5741343177       19.9296287180
  H         2.0395355270        7.7807950442       25.9071178257
  H         3.6201963164        7.1574279560       26.5230066579
  C         2.0698810785        5.7062256362       26.5076185623
  N         6.2357958094       -0.5457859917       28.1796890612
  C         5.6066416033       -0.1425221005       30.3751772771
  C         5.0453360189        2.0233297597       31.2377459454
  H         5.2095929438        3.6328935126       29.8667652397
  C         7.7094078042        1.8214397810       19.9423658174
  C        10.1512022743        1.7173910417       20.6771875006
  C         9.5144443994        4.2694160694       18.5554364242
  C         9.5790059459        5.6821873153       18.4475024398
  H         1.1829776285        5.5622520499       25.9847500499
  H         2.6088031797        4.7679126740       26.2833230104
  C         1.7639102881        5.8149346918       27.9525760459
  S         6.2636290325       -1.9742739531       28.8876757942
  N         5.7182737447       -1.5337004073       30.3137767922
  C         5.1801493858        0.6125763449       31.4741080731
  H         4.7983370614        2.6808610677       32.0521365714
  H         7.4189798597        1.1192130782       20.7066338060
  H         8.0807268624        1.3137310721       19.0581735499
  C         6.5490635745        2.7254654276       19.5918794198
  H        10.2031306043        1.2978993660       19.6356105203
  H        10.1015097546        0.8847002373       21.3384377952
  C        11.4828992038        2.4074261777       20.9358537601
  H         9.7262482600        3.5157070083       17.8453976443
  C        10.0814812123        6.3808601590       17.1870403002
  H         0.9813826532        5.0743643487       28.1556995646
  H         1.4169258299        6.8065213949       28.1595968398
  C         2.8658404620        5.4419632128       28.8497058957
  C         4.9346959719       -0.0923791674       32.7131260554
  H         6.8467364966        3.4390090530       18.8577857138
  H         6.3501146958        3.1936325912       20.4964298904
  C         5.3145066774        1.9386087207       19.1482609500
  H        11.3914365693        2.9759889123       21.8491767296
  H        11.6906594322        3.2743318010       20.3093289933
  C        12.7234770265        1.4561663165       20.9765860615
  C        10.0460994455        7.7640261831       16.8769128459
  C        10.4415218069        5.5202757260       15.9872644310
  H         3.0432976023        4.3669365738       28.6616684793
  H         3.7839655134        5.9696221315       28.4950924239
  C         2.5205263998        5.6605537176       30.3364210349
  H         4.8639235394       -1.1624146253       32.6420858236
  C         4.6501580034        0.3193945669       33.9946220917
  H         4.9748603982        1.1064604714       19.7877381128
  H         5.5441819852        1.3275460763       18.3006223880
  C         4.2318887633        2.8275876645       18.6222035618
  H        12.6477837202        0.8758481102       21.8952756076
  H        12.6676779319        0.7607093288       20.1436737100
  C        14.0329836943        2.2658086418       20.9147084610
  N         9.6667746677        8.7065681836       17.8589333308
  C        10.4953692764        8.3168511850       15.6948325154
  C        10.6827860724        6.0903600303       14.7185841455
  H        10.4440273596        4.4613730538       16.0630248523
  H         2.7102421753        6.6593085892       30.6154533982
  H         1.4655074975        5.3503142073       30.6447328183
  H         3.0860044954        4.9009744109       30.8194613606
  S         4.4923386463        1.9597877128       34.4021050262
  C         4.6260826722       -0.6964613603       35.0773958965
  H         4.1498698213        3.5877476475       19.4254535563
  H         4.6574839489        3.4029535312       17.7979983914
  C         2.9395393145        2.0315079744       18.2217608638
  H        14.0868754426        2.8487627641       19.9408107644
  H        14.8690410863        1.5699676951       20.7336010105
  C        14.3383940044        3.1628015299       22.1580501365
  S         9.8222232285       10.1933730615       17.1514083925
  N        10.4998026310        9.7612489046       15.7478192779
  C        10.8959060847        7.5298537771       14.5559362883
  H        10.8860276370        5.4588708969       13.9160107856
  C         4.3647872350        1.2991977529       36.0915444299
  N         4.4473065295       -0.0547353826       36.2372982980
  O         4.7429704592       -1.9095866574       34.8321890774
  H         2.0912296837        2.6638412751       17.8797510321
  H         2.6826737169        1.6339400852       19.1226834326
  C         3.1234171493        0.9474913436       17.1974285652
  H        15.0894085349        3.9353126870       21.9076717494
  H        13.5259630072        3.7676586370       22.5171015914
  C        14.8336238069        2.2987595708       23.3434430164
  C        11.2683221544        8.2113613255       13.3563434739
  S         3.9998170144        2.2120671545       37.5266022824
  C         4.5238170266       -0.7707028925       37.4918957323
  H         2.5135061046        1.0977986781       16.3166937453
  H         4.1213455470        1.0338317918       16.8741985989
  C         2.9805605187       -0.3985617420       17.7086339145
  H        14.8839267798        1.2355989303       22.9984146369
  H        14.0412650574        2.2380357559       24.0877007856
  C        16.1209363822        2.7564943102       23.9939521384
  H        11.3235976618        9.2594784991       13.4432036565
  C        11.7618903237        7.7194479303       12.1622391892
  H         3.9531621907       -0.2300494552       38.2198960194
  H         4.0502363871       -1.7566661230       37.4811934940
  C         5.9215389588       -0.8581295767       37.9758410002
  H         3.5546165091       -0.5929992325       18.5977409210
  H         3.4478290920       -1.1702961617       17.0274651799
  C         1.5886275040       -0.8067340571       17.9537477163
  H        16.0868085296        3.8220364823       24.2455420527
  H        16.2611587074        2.1803612274       24.9308410677
  C        17.4046962736        2.5360615255       23.2650196401
  S        12.1411451836        6.1015677552       11.7199926919
  C        12.2016025189        8.6477192287       11.0630314938
  H         6.5642272744       -1.1546324938       37.0920018259
  H         6.3331370666        0.0859868591       38.4322884655
  H         6.0466093036       -1.7664945777       38.5901865074
  H         0.9565390670        0.0758721250       18.0283463619
  H         1.6365406581       -1.3934669450       18.9049198005
  H         1.2752605437       -1.4767988857       17.1210692018
  H        17.4939036711        3.2101720070       22.4016547438
  H        17.6482091125        1.5464233097       22.9025847129
  H        18.2350077389        2.9565196468       23.7695447063
  C        12.4835597760        6.7547097967       10.0565563746
  N        12.5968814802        8.0360398980        9.9653076498
  O        11.9587655037        9.8742512329       11.1888454236
  S        13.0648999036        5.8128639015        8.6816250074
  C        12.8775020885        8.7223362305        8.7038011092
  H        13.3494641922        9.6823538321        9.0315974053
  H        13.5866182322        8.2365145336        8.0414369489
  C        11.5210178811        8.8353508311        7.9692911279
  H        11.3357778365        9.8946778817        7.8632438106
  H        11.4145502294        8.3651049747        6.9726231867
  H        10.6909852190        8.5412354370        8.5064065022
  H        20.7232425411       11.2786995903        3.3371728440
  C        21.3551696786       10.4379483234        3.3062299457
  H        20.8117967653        9.5292195546        3.5068338045
  C        22.4602242022       10.5163231332        4.3391543735
  C        21.8458637708       10.4170104745        1.8460374656
  C        21.8448023204       10.5596216018        5.7585819986
  H        23.1401990365        9.6660360133        4.1874084600
  H        23.1853879974       11.3134915232        4.1239063563
  H        22.5190494676        9.5912686551        1.7034291471
  H        22.4214108892       11.3032677756        1.5573767787
  H        20.9770554669       10.0653522000        1.1599631772
  C        20.9997985688        9.3377392404        6.2211785241
  H        22.6695955310       10.8386475445        6.4647843732
  H        21.1025657127       11.4270710711        5.7923933447
  C        20.5227420593        9.3557394158        7.6530825347
  H        21.5093694723        8.3560052973        6.2543612653
  H        20.1468316909        9.2135717532        5.5595821895
  C        19.2980615353       10.2622521442        7.7967681471
  H        21.3236769076        9.8091828434        8.2787470007
  H        20.4308388660        8.3411163574        8.1287173153
  C        17.9679296732        9.6063796319        7.3329844823
  H        19.0973124300       10.4873038142        8.8283008804
  H        19.5985636552       11.1209411706        7.2336622272
  C        16.8691093508       10.6117539767        7.1638018051
  H        17.6965995222        8.8402008504        8.0867175538
  H        17.9927381191        9.0516746433        6.4079601501
  C        17.2151706379       11.9559590048        6.5958399406
  C        16.4246168603       11.2558038919        8.4220969295
  C        15.7186253636        9.8911172002        6.3965493649
  C        16.8987772193       13.0705265153        7.3673741247
  C        17.8284890526       12.3858988966        5.3702798877
  C        16.4499058302       12.6021159958        8.5793920648
  C        15.9267128398       10.5789359159        9.5616472274
  H        16.0519793311        9.5646353818        5.4204240944
  H        15.4627883777        8.9903203124        6.9169446592
  C        14.4256885910       10.7443672522        6.2234907700
  S        17.1183495819       14.5649609270        6.5850254420
  C        17.6722179350       13.7481713033        5.1659820865
  H        18.2839482543       11.6029935082        4.7898907436
  C        15.9320199361       13.1445408449        9.7336919699
  H        15.9721484160        9.5306458566        9.5706761864
  C        15.4140276081       11.1359323177       10.7227864387
  H        14.7689025692       11.6951655246        5.7144381070
  H        14.0534509996       11.0505184351        7.2184372322
  C        13.2977803375       10.1588097132        5.2724665577
  C        17.9465553159       14.3580809916        3.8536100257
  C        15.4057841447       12.4764192487       10.8625580015
  H        15.9170431968       14.1985376933        9.7872292237
  C        15.0215887342       10.6846585513       11.9623964855
  H        12.3749321926       10.6301086984        5.5238875398
  H        13.1016908338        9.1325246062        5.4186451133
  C        13.5963053162       10.4157467517        3.7786357844
  C        17.9901012206       15.7743669085        3.6217056452
  C        18.1997306406       13.4193675158        2.7066315442
  C        14.9734622177       13.1732149603       12.1430434177
  C        14.7021969517       11.8021073357       12.7682073593
  S        14.8746697178        9.1813691273       12.7649431190
  H        14.6682696789       10.3843058549        3.5989641660
  H        13.2601938662       11.4225518926        3.5698314750
  C        12.9167801357        9.4819387764        2.7937748517
  N        17.7391028087       16.7817871589        4.5821999867
  C        18.2870106245       16.2994658704        2.3954899949
  C        18.4312575938       13.9711126855        1.4615228088
  H        18.0955694636       12.3775474783        2.7926392659
  C        13.6780316612       13.9301223645       11.9442680000
  C        16.0687421910       14.0715173136       12.7780698666
  C        14.1601696675       11.4156711730       13.9561880136
  C        14.3349894253       10.0672854191       14.2146656117
  H        13.1400269209        8.4675935360        3.0267124181
  H        11.8205665893        9.6726141114        2.7579686750
  C        13.4506820691        9.5666698540        1.3086470186
  S        17.6182468417       18.2358261558        3.7931649059
  N        18.1200234618       17.7031919409        2.3793894792
  C        18.5698648335       15.4850416731        1.2560611762
  H        18.6486784248       13.2909710337        0.6747613434
  H        13.8721615290       14.8045740936       11.2554866716
  H        13.3399675992       14.4511975516       12.8389717474
  C        12.4813588458       13.1101304314       11.3458275035
  H        16.1850710235       14.8971588542       12.0787665258
  H        15.7601551914       14.4155883699       13.7387720008
  C        17.3972075945       13.3060028689       13.0502505562
  H        13.7874391840       12.1641401230       14.6749568434
  C        13.9965773660        9.3336503171       15.4355904428
  H        13.8850715175        8.6198057091        1.0242460359
  H        14.2683819620       10.3168407204        1.2974920373
  C        12.2963873450        9.7773885660        0.2766204349
  C        18.8781221655       16.0905585457        0.0008363170
  H        12.7825979923       12.4746395110       10.4891631132
  H        12.1468973882       12.4770883545       12.1678577740
  C        11.2225500579       13.9251493422       11.1180984738
  H        17.6971648546       12.7921629529       12.1299610234
  H        17.1039009317       12.5853421509       13.8222800203
  C        18.3705842129       14.1814403466       13.7143640758
  C        13.9130791209        7.9699511654       15.7053201454
  C        13.6342787950       10.2262029873       16.6293264174
  H        11.8789237141        8.7163089743        0.0417982139
  H        11.4077590263       10.2445138612        0.7012636010
  C        12.7308987109       10.5294170878       -0.9818884103
  H        18.9706043760       17.1737469166        0.0566717620
  C        19.1010451786       15.5468168972       -1.2858234080
  H        11.5892656333       14.7252300771       10.5377331309
  H        10.7905774638       14.4234413687       11.9830735099
  C        10.1522709920       13.0931711723       10.3687258553
  H        18.9800513506       14.7487466725       13.0029004044
  H        17.9346301970       15.0275394710       14.2707818122
  C        19.2718153836       13.4496159036       14.7336418852
  N        14.3161501040        7.0394800501       14.7730280954
  C        13.5369548357        7.4657530127       16.9450464711
  C        13.3696673687        9.6896595004       17.8755586583
  H        13.7136216478       11.3412771525       16.4277965617
  H        11.9342368528       11.0878445412       -1.3574279025
  H        12.9641181056        9.7990660903       -1.7662040664
  H        13.6086654531       11.1591635718       -0.7754051287
  S        19.2868473865       13.9218917395       -1.5709066362
  C        19.2663906688       16.4535988439       -2.3798005552
  H        10.6693662336       12.2883183011        9.7282413057
  H         9.5989869674       12.4895828927       11.0762897770
  C         9.0685792130       13.9527709634        9.7811515869
  H        19.1999557239       12.3408274312       14.6833535086
  H        18.9722902553       13.6895289167       15.7517609250
  C        20.6876892389       13.8612685484       14.5578662924
  S        14.0264918836        5.5903755372       15.3941943581
  N        13.6642649280        6.0410231207       16.8628305262
  C        13.1803011273        8.2476914509       18.0562358756
  H        13.1996696395       10.3399662283       18.7081377208
  C        19.5620217497       14.5030775327       -3.1715641110
  N        19.6164606895       15.8145680170       -3.4280166648
  O        19.0646616273       17.6315271867       -2.3181751389
  H         8.6202246731       14.6133160386       10.5737149137
  H         9.4096520017       14.5003607515        8.8856877957
  C         7.9518794412       13.0283756220        9.3731939915
  H        21.2836126640       13.0384497630       14.9237859781
  H        20.9095575687       13.9542436911       13.5184617048
  C        21.0370312515       15.1952783685       15.2429518885
  C        12.6725561207        7.6149403995       19.2760836278
  S        19.9337046770       13.3786510621       -4.5546715169
  C        19.7684248905       16.4579989351       -4.6868228523
  H         8.4008419589       12.1871949032        8.7840875177
  H         7.5240595950       12.5748146765       10.2523794223
  C         6.9342931976       13.6533194663        8.4368088476
  H        21.5165823863       14.9975096637       16.2671244852
  H        20.1152239936       15.6294471344       15.5611307235
  C        21.9188445381       16.1925042979       14.5124182811
  H        12.6918339851        6.5592486874       19.2928326230
  C        12.0990993417        8.0973329372       20.4436524099
  H        20.4755555681       16.0205987910       -5.4533713603
  H        20.2955871566       17.4318757501       -4.6599676071
  C        18.4463807360       16.5974623064       -5.3797064974
  H         6.7744995302       12.9443978616        7.6714271855
  H         7.3094719677       14.5675875893        7.9629777942
  C         5.8526324870       14.2313816666        9.1851657992
  H        22.9211529797       16.2527203544       14.9523772516
  H        22.0424646759       15.9065909795       13.4433573862
  C        21.2590238144       17.5705150825       14.3998626386
  S        11.6211237080        9.6533950828       20.7484762335
  C        12.0732740140        7.2049153260       21.6118883829
  H        18.6471750561       17.2863837431       -6.2241828286
  H        17.6910947569       17.0751585637       -4.7248924878
  H        18.0221477231       15.6415650443       -5.8183358664
  H         6.1393667215       15.0530008825        9.8916588999
  H         5.1182429827       14.6728076938        8.5590320856
  H         5.4131997163       13.4199957656        9.7924328078
  H        22.0430434417       18.2606226956       14.0074047513
  H        20.4593071720       17.5883065729       13.6721730990
  H        20.9832662423       17.9692465528       15.3255396584
  C        11.3621975444        9.1168669295       22.4451057243
  N        11.7685720191        7.8615634284       22.7235622044
  O        12.3219185740        6.0164809117       21.5321618014
  S        10.3996669809        9.8333805801       23.7799494470
  C        11.7675820296        7.1454984149       24.0218191651
  H        10.9587690842        6.4768360031       24.1426383921
  H        11.6962258125        7.8233032454       24.8613532043
  C        13.1187021970        6.4113291735       24.3153467261
  H        13.1634277245        6.2577646891       25.4279396817
  H        13.9913730758        6.9920637732       23.9268373130
  H        13.1304919043        5.4062695220       23.8063237610
