352
 i =    78500, time =    78500.000, E =        25.0829591746
  H        10.3629553166        7.1098686590       31.5734486032
  C        11.2878459171        6.5936564837       31.9063861091
  H        11.9052395530        7.4918236956       32.1835535403
  C        12.0530647586        5.9636687279       30.7572889431
  C        11.2011681213        5.7821328549       33.2278876963
  C        11.0650037261        5.1672214502       29.8792085699
  H        12.6107530301        6.6008995814       30.0758025515
  H        12.8428855017        5.2823349031       31.1284695774
  H        12.1832938803        5.5440036895       33.6094224424
  H        10.8935365498        6.4529537325       34.0537313092
  H        10.4325719913        5.0035677245       33.2093408863
  C        10.2681235047        6.0783900262       28.8804952256
  H        10.5359730955        4.4844843005       30.5201478369
  H        11.5621843129        4.4017172235       29.3247665112
  C        10.4963675394        5.8385459666       27.4156306022
  H         9.2652988755        6.0821801100       29.2562686286
  H        10.5181949822        7.0745701646       29.1399521302
  C         9.4435556645        5.0584814526       26.7257764773
  H        11.5009514535        5.2757945380       27.2908917981
  H        10.6858992083        6.8132194897       26.9604728570
  C         8.2110874514        5.9894485370       26.1794869551
  H        10.0241776630        4.5883378667       25.9400497179
  H         9.1077479060        4.2890284785       27.3878076059
  C         7.2677054417        4.9705046040       25.4763886383
  H         7.7560910770        6.5886118197       27.0561490227
  H         8.5432009093        6.7736210591       25.5102259421
  C         6.9962659734        3.7340687354       26.3036545341
  C         7.7698925841        4.1695827949       24.3409040200
  C         6.0119180974        5.7553888118       24.9839380549
  C         7.2453093998        2.5800944395       25.5993104335
  C         6.6247446295        3.5327444468       27.6108093694
  C         7.7344757110        2.8386124376       24.2629305784
  C         8.2941976233        4.8374256745       23.2108171148
  H         5.4911698512        5.0535184259       24.3385498234
  H         6.3104608740        6.5730170184       24.3184544587
  C         4.9109896063        6.2284042738       26.0229257311
  S         6.7863004501        1.1828290804       26.5440661641
  C         6.4738264839        2.1765242126       27.8861781010
  H         6.5694496685        4.3356876112       28.3645484291
  C         8.1422553047        2.1661200884       23.1776163388
  H         8.3820973128        5.8867053488       23.3588540813
  C         8.5695423699        4.2006279057       22.0359893016
  H         4.9155527216        5.7667103397       26.9299420382
  H         5.0585650396        7.2469819992       26.2991860852
  C         3.5533712361        6.0466751812       25.2969658946
  C         5.9953870124        1.5444306336       29.2031567534
  C         8.5129616182        2.8126963800       22.0054562819
  H         8.0861879627        1.1097175620       23.1656365405
  C         8.9990621506        4.5219100923       20.7663983886
  H         3.4194726331        4.9755463306       24.9107030106
  H         3.4319738338        6.6373999663       24.3551044690
  C         2.3608799788        6.4386626996       26.1601664275
  C         5.9052902412        0.1502448018       29.4908702838
  C         5.4249040149        2.4131706230       30.3292202711
  C         8.8267345236        2.0723495507       20.7587668703
  C         9.1384549432        3.3650312486       20.0082712414
  S         9.3630362533        5.9560541602       19.9000606266
  H         1.5306116732        6.5103123003       25.4520050662
  H         2.5274939504        7.3807187829       26.6389153089
  C         2.1389591545        5.3083442011       27.2579759705
  N         6.2206745264       -0.8939855000       28.6239489117
  C         5.6561330869       -0.3849392491       30.7073053580
  C         5.1744741263        1.8768317434       31.6024443501
  H         5.1919513128        3.4253164618       30.1433279515
  C         7.5899861037        1.3205157297       20.2045150495
  C        10.0896841172        1.1664897650       20.8407130011
  C         9.5142550919        3.7507411403       18.6724950117
  C         9.5896914871        5.0736683350       18.4755713414
  H         2.1032067463        4.3590344210       26.7715881871
  H         2.9740215956        5.2810061279       27.9334366588
  C         0.7995045688        5.5664336313       27.9654612824
  S         6.1241977507       -2.3620546504       29.3045719520
  N         5.6832700512       -1.7923594082       30.7894949688
  C         5.3635055551        0.4179619386       31.8547588844
  H         4.9444262528        2.5311521855       32.4060894056
  H         7.2897518621        0.4960121555       20.9000685990
  H         7.9730244032        0.8739149548       19.2326381572
  C         6.3184934722        2.1572529613       19.9264283923
  H        10.3223104153        0.7928571921       19.8269985362
  H        10.0007999741        0.3444249775       21.5770051973
  C        11.3896011444        1.9884878126       21.1869434369
  H         9.6797498357        2.9902059792       17.9210936037
  C        10.0243472454        5.7918874959       17.2292594320
  H         0.0004101914        5.4018658710       27.3041211360
  H         0.6492885566        6.6722460885       28.2436697011
  C         0.6108707831        4.5557931877       29.1381902661
  C         5.2395002892       -0.1758928297       33.1312801891
  H         6.3795542338        2.9200864992       19.1572608423
  H         6.0046412359        2.7179379037       20.8558195708
  C         5.0980800688        1.3008451592       19.6210544386
  H        11.1985575473        2.8183500022       21.8491863678
  H        11.7063292864        2.4381574045       20.3131007216
  C        12.5421321037        1.0911293010       21.5704731096
  C        10.1518220089        7.2170911587       17.0268720499
  C        10.2375535536        5.0369177021       15.9056360736
  H        -0.4563732067        4.6007891247       29.3881153994
  H         0.7777231719        3.5338710341       28.7605679990
  C         1.4265697458        4.9529588588       30.3898291753
  H         5.3439744874       -1.3063592997       33.1363738732
  C         4.8811657687        0.3209811353       34.3915584611
  H         4.4431006118        2.0507435747       19.5226539265
  H         4.7048626093        0.7057239515       20.4366408514
  C         5.0014243830        0.6116836454       18.2511506973
  H        12.2432848167        0.3383236740       22.3018161395
  H        12.8245795759        0.5028027484       20.7017769727
  C        13.7181881033        1.9806398027       22.0544137726
  N         9.8776495441        8.1885943590       18.0546922342
  C        10.4690942391        7.7644874036       15.8097317602
  C        10.5158007654        5.6339885808       14.7067074325
  H        10.0367591700        3.9669628766       15.9496012320
  H         1.1489876879        5.9411301642       30.6935532177
  H         1.4335525283        4.3177892300       31.2960514643
  H         2.4464165742        5.0814842664       30.1585132379
  S         4.5353535072        1.8994101455       34.9083689666
  C         4.9104209711       -0.6582010598       35.6041281712
  H         5.6822054307        1.1902101716       17.6413599153
  H         5.4914994959       -0.3363711121       18.3947297108
  C         3.6124229805        0.3007950813       17.6071381973
  H        13.3384486454        2.7572776991       22.6784693849
  H        14.0895890020        2.5639106367       21.1452024485
  C        14.8645395593        1.2130607729       22.8021291636
  S        10.1225150902        9.6467335190       17.4148001449
  N        10.5970492281        9.1931206782       15.9486734429
  C        10.7382484357        7.0838875173       14.6089347278
  H        10.6253003314        4.9782630646       13.8476626247
  C         4.4168527687        1.3304302588       36.5615861068
  N         4.5506295330        0.0094912569       36.7155943025
  O         5.1955483722       -1.8226018810       35.5857998842
  H         3.7342774154        0.1902828689       16.5053985650
  H         2.9853276405        1.1991023049       17.7636949765
  C         3.0648437456       -1.0051166811       18.1818346015
  H        14.3792184689        0.5762477394       23.5736239573
  H        15.3674186013        0.5888564611       22.1342683136
  C        15.7206068332        2.2879830769       23.4763434603
  C        11.1756878094        7.9054703432       13.5250501987
  S         3.8206964393        2.2235806976       37.9218520086
  C         4.5269609975       -0.6703591351       38.0278884418
  H         3.8473627857       -1.7697882955       17.9055224288
  H         2.9908256000       -0.8695591269       19.3052025921
  C         1.6416256070       -1.3147114769       17.6767482832
  H        15.1685804907        2.7111503414       24.2704293353
  H        15.8598659369        3.1017118841       22.7580419796
  C        17.0762549838        1.6963705465       24.0231155737
  H        11.0463334430        8.9382154874       13.5370476066
  C        11.6001387830        7.5608279854       12.2896873803
  H         4.0589208850       -0.1108184480       38.8139648173
  H         4.0319085271       -1.5921972263       37.9276591559
  C         5.9475140922       -0.9809851492       38.5407511444
  H         1.0380211932       -0.4248076756       17.8449646311
  H         1.2038991096       -2.0540314389       18.3846684326
  C         1.7256884453       -1.7853434950       16.2381151266
  H        17.4331956845        2.2821892022       24.8825596178
  H        16.9451172081        0.7295699661       24.4946982896
  C        18.0814077052        1.6073977154       22.8123478309
  S        12.0139981267        5.9603950533       11.8603802861
  C        11.8415203799        8.5672199812       11.2498316068
  H         6.1754317516       -0.6624070267       39.5451390187
  H         6.2660251054       -2.0584617651       38.4816608946
  H         6.6218516203       -0.3243051283       37.9588054342
  H         2.4769249394       -1.3327170986       15.7075248644
  H         0.8728757548       -1.6428782553       15.6346628261
  H         2.0297604938       -2.8532031846       16.1971295147
  H        17.9617700394        2.5319519571       22.2761598105
  H        17.7316141905        0.7647756984       22.1340137591
  H        19.1211533099        1.4325157737       23.1786613743
  C        12.0698552958        6.5984991906       10.1863557339
  N        12.1461313946        7.9488569231       10.1091483299
  O        11.6058983038        9.7746790872       11.3569317503
  S        12.7502705854        5.6132166000        8.8861572909
  C        12.4229855084        8.6841437466        8.8572974984
  H        12.8583375113        9.6675500674        9.1261227636
  H        13.1394971599        8.2884502528        8.1753762002
  C        11.1363914130        9.0785669203        8.1142780173
  H        10.7712042655        8.2297948399        7.4924914208
  H        10.4654931979        9.4026791514        8.9511912650
  H        11.2213418972        9.9650166681        7.4694661385
  H        21.1019652213       11.3427898105        3.2196299012
  C        21.4345248355       10.2147976279        3.1398387877
  H        20.4759653224        9.7972601646        3.2381394190
  C        22.4146956947       10.1330683783        4.2573754204
  C        22.0421489571        9.8929102456        1.9056852219
  C        21.7097605917       10.3265749552        5.5729480102
  H        22.8743551614        9.1101681195        4.3074708999
  H        23.1580836027       10.9125495204        4.0918437099
  H        22.2331354658       10.8126242664        1.2641389203
  H        21.3824140553        9.2784712548        1.3320946974
  H        23.0553638369        9.3928208723        1.9689838823
  C        21.1913277925        8.9940060487        6.1605270196
  H        22.4626270665       10.6357867244        6.2846393019
  H        20.8973039340       10.9916437000        5.5055891865
  C        20.2935730017        9.3183143230        7.3135693103
  H        21.8978399923        8.3007801199        6.5843751500
  H        20.5791909248        8.5060074178        5.3736003882
  C        18.8721449248        9.4556483863        6.8057580942
  H        20.5878718644       10.1253150931        7.9322533817
  H        20.3648899403        8.4260769209        7.9628313934
  C        17.8136062288        9.8508148821        7.8819716635
  H        18.8556937080       10.1667530796        6.0091833093
  H        18.4653378862        8.5662589374        6.4131417707
  C        16.5929843576       10.5616965540        7.3363355519
  H        18.2818392494       10.5860873247        8.5979288924
  H        17.4897698528        8.9811968027        8.4190374983
  C        16.9204802365       11.9128325685        6.6367798326
  C        16.0334707071       11.2859438412        8.5115565890
  C        15.5732848364        9.7237906787        6.4647450706
  C        16.4957597499       13.0208100665        7.3302535174
  C        17.5351666734       12.2796912984        5.4234735472
  C        16.0511339065       12.6268390301        8.5727487746
  C        15.5460820687       10.6338294024        9.6310356595
  H        16.1099745164        9.4026852959        5.4944888720
  H        15.1845944031        8.9624922654        7.0578353444
  C        14.4340675911       10.5742196192        5.9690618334
  S        16.8597514208       14.5522194656        6.6098478678
  C        17.5446648741       13.6419592111        5.2688056514
  H        17.8462386020       11.5670979682        4.7085021480
  C        15.7640614595       13.2649177532        9.7503995652
  H        15.5525639848        9.5529260565        9.4174147673
  C        15.2476881254       11.2606614594       10.8063012258
  H        14.9025650065       11.3804517855        5.4383254083
  H        13.8928838441       11.0473841977        6.8178304906
  C        13.4059959060        9.8634324950        5.1660473266
  C        17.9867138494       14.3027628635        3.9260285763
  C        15.3974549226       12.5991722074       10.9080686466
  H        15.9877667973       14.3145660393        9.7539805048
  C        15.0052225218       10.8179528701       12.0548581636
  H        12.5296798632       10.5110990204        5.1693361912
  H        13.0688604867        9.0105484793        5.7041584764
  C        13.7440017662        9.5004745690        3.7120838963
  C        18.0808372855       15.6667282152        3.6457509679
  C        18.3593828123       13.4587149475        2.8017431724
  C        15.1818178291       13.2295727577       12.2750691865
  C        15.0356136813       11.8881292744       12.9465138034
  S        14.7548135935        9.2884995874       12.8089905136
  H        13.4860610726        8.4556930740        3.5956738069
  H        14.8055410790        9.5815967557        3.5376619849
  C        13.0354899186       10.4119625305        2.6198605924
  N        17.7740219986       16.6199738862        4.6003799813
  C        18.1394780286       16.2124788530        2.3643237479
  C        18.6326385778       13.9889180627        1.5451089963
  H        18.5556726511       12.3565545959        2.8406242582
  C        13.8236023147       14.0275215776       12.1867527304
  C        16.2166956815       14.1507152032       12.8415359548
  C        14.7557591541       11.4791605589       14.2641053089
  C        14.5155555230       10.1263374647       14.3582690576
  H        12.0193878215       10.5484954226        2.9776740031
  H        13.4585550495       11.4589155174        2.5182232689
  C        12.9684369519        9.6827928329        1.2938776912
  S        17.7136930408       18.0852997151        3.8942152890
  N        18.1974285322       17.6109378751        2.3937962692
  C        18.5411957756       15.4146876395        1.2913270617
  H        19.0966051679       13.4021458297        0.7754305456
  H        13.8718847616       14.8352421696       11.4946859638
  H        13.5162641889       14.4410296724       13.1292628897
  C        12.6449149280       13.1572391516       11.7541909387
  H        16.5117398506       14.9692976260       12.1365188272
  H        15.7915115556       14.6093729944       13.7705923337
  C        17.5382865204       13.3901195640       13.1698084031
  H        14.8652864361       12.1976451945       15.0333294051
  C        14.2648684327        9.3755339157       15.6317127753
  H        12.0438252520        9.0687146413        1.3066863694
  H        13.8219556290        8.9906515285        1.3460510610
  C        13.0844889259       10.4950857480        0.0424214361
  C        18.9044272173       16.1105619827        0.0742774035
  H        12.9389157747       12.4761605370       11.0469709227
  H        12.4624208316       12.5619696905       12.6394340448
  C        11.5143424314       13.9768951815       11.2453458842
  H        17.8165660710       12.8540958568       12.2150306976
  H        17.3568590281       12.6244187351       13.9753817751
  C        18.6920585088       14.3733493936       13.3923535541
  C        14.0814465118        7.9681342217       15.6450896042
  C        14.0919323880       10.1088581215       16.9133276658
  H        13.3640359347       11.5838972946        0.1637968199
  H        13.7770067483        9.9647646892       -0.6491716851
  C        11.7654108631       10.5021699171       -0.6183898596
  H        19.1074477333       17.1452892668        0.1137298480
  C        19.2381104632       15.6451694066       -1.2008398837
  H        11.9302793607       14.6805508937       10.4608089581
  H        11.1582346743       14.5495028571       12.1066060913
  C        10.4163176124       13.1009827556       10.7802196529
  H        18.9279237621       14.8794675755       12.4786183027
  H        18.5179930285       15.1293424166       14.1454832142
  C        19.8778429360       13.6022451031       13.9301496890
  N        14.2709666935        7.0353924232       14.5799513624
  C        13.7341227610        7.3326669662       16.8415822598
  C        13.8103885502        9.4397269062       18.1197250850
  H        14.3292580864       11.1828984012       16.9202810473
  H        10.8772056936       10.4733374264        0.0219151912
  H        11.6426715685        9.5835827610       -1.2137722363
  H        11.6834411827       11.3439326334       -1.3749043475
  S        19.4277460176       14.0393312633       -1.8757182277
  C        19.3520356013       16.7088990015       -2.2099750813
  H        10.8333967020       12.3716489329       10.0158373729
  H         9.9663900392       12.5364433764       11.5765204212
  C         9.2573375136       13.9671701075       10.1791124867
  H        20.6640709706       13.3279091137       13.2161460924
  H        19.5957060230       12.6431332622       14.3833713806
  C        20.5361775193       14.4128090137       15.0889014712
  S        14.1840597752        5.5323894601       15.2214351419
  N        13.5860854472        5.9471169778       16.6940717882
  C        13.5421476867        8.0107151110       18.0979143366
  H        13.8079128440        9.9750581140       19.0729297186
  C        19.4663558833       14.8236807190       -3.4186824007
  N        19.5408883047       16.1407884078       -3.4490577073
  O        19.3852082182       17.9237042561       -1.9787000706
  H         8.7137336933       14.3616748487       11.0509569729
  H         9.5296465237       14.8694085737        9.5199011069
  C         8.3018097425       12.9963029829        9.4614370894
  H        19.9049806130       14.7452931984       15.8906662199
  H        21.0712951231       13.6260006952       15.6852510802
  C        21.4808611361       15.5001952770       14.6225082288
  C        13.2348862157        7.2152501982       19.1916779867
  S        19.7981991951       13.9037021174       -4.8993758606
  C        19.7657616973       16.9061153444       -4.6933481430
  H         8.8506577756       12.5769960200        8.6847731357
  H         8.1337622895       12.1480164107       10.1401851383
  C         6.9525470739       13.5839416255        8.9764746410
  H        21.2407892692       15.8565168413       13.6101122976
  H        22.4163497813       14.9511255877       14.3642999856
  C        21.5514259510       16.5799668958       15.6144900129
  H        13.3068797673        6.1183571314       19.0175501475
  C        12.6790585936        7.5625923834       20.3921004994
  H        20.4007458367       16.3588691782       -5.3461652452
  H        20.3222095455       17.8494957761       -4.6068840225
  C        18.4010849620       17.0385236267       -5.3507808970
  H         6.5733433375       12.9443467350        8.1036779785
  H         7.2120245254       14.5376619398        8.6176109113
  C         5.8244441607       13.7128347931        9.9624708385
  H        21.7084739015       16.0850403666       16.5715808456
  H        22.4397442493       17.1593155659       15.4302448151
  C        20.3291883070       17.4942717639       15.5255204633
  S        12.2628668856        9.0650504352       21.0715504732
  C        12.3505664880        6.3556213462       21.2145839385
  H        18.2803739950       17.9209374263       -5.9735825846
  H        17.6248696155       16.9862825899       -4.5741226056
  H        18.1666748113       16.1600859343       -5.9219032206
  H         6.0971706356       14.4464670772       10.6932150019
  H         4.9962120122       14.0975757240        9.3729373542
  H         5.6191449776       12.8064593438       10.5410255056
  H        20.0462315270       17.5535171541       14.4747606582
  H        19.5591374482       17.0581984243       16.0960874604
  H        20.5410947862       18.5038001743       15.9515865102
  C        11.6453417637        8.0922606163       22.4378144075
  N        11.7443657544        6.7313194734       22.3016666253
  O        12.5721403975        5.1842005620       20.9189025343
  S        11.0550624092        8.6579632480       23.9412146973
  C        11.5891328265        5.8631602972       23.4516904693
  H        11.0752919578        4.9191418521       23.0495489065
  H        10.7036287189        6.1414451102       24.1314211963
  C        12.9280586180        5.7111503959       24.2248014102
  H        13.0762497614        4.6540073636       24.4768375979
  H        12.7035970337        6.1124636278       25.2640527304
  H        13.7756144750        6.2333178298       23.7707342545
