352
 i =    65800, time =    65800.000, E =        24.7323761992
  H        10.0470308903        5.1120633629       31.0945554240
  C        10.6888252935        5.8223797774       31.5717006076
  H         9.9724308330        6.5642809109       31.8599024994
  C        11.6608428037        6.5305675645       30.5105179748
  C        11.3654914819        5.4546889526       32.9438729810
  C        12.3791019638        5.6417960905       29.4389391529
  H        11.0599395218        7.2401147474       30.0060308026
  H        12.3988162181        7.1401872530       31.0876854409
  H        10.8445665598        4.6349267441       33.4673403363
  H        12.4040191674        5.0860605635       32.7230802392
  H        11.3174710907        6.2563793370       33.6763301893
  C        11.4503189208        4.8057854129       28.4750385343
  H        13.0387749103        4.9520152574       29.9197533506
  H        13.0004266358        6.2851292141       28.8436770793
  C        10.7540017006        5.6904408050       27.4907929947
  H        11.9847384588        3.9876017411       27.9100504861
  H        10.6861165545        4.1566420689       29.0112618286
  C         9.7002187798        4.8858961619       26.6642297849
  H        11.4156905614        6.1673876650       26.7372233224
  H        10.3157265013        6.5472801868       27.9907929317
  C         8.6421772069        5.7955365501       26.0986017414
  H        10.1856374705        4.2197438060       25.9387572745
  H         9.2126110710        4.2228794648       27.3067649881
  C         7.4963721393        5.0139127678       25.4160923523
  H         8.0841814084        6.2415575818       26.9881334659
  H         8.9775040489        6.5510379335       25.4477852345
  C         7.0925256770        3.7132054097       26.0413124912
  C         7.8624007500        4.2919655059       24.1499693856
  C         6.2118932071        5.8732810543       25.0965540309
  C         7.3395094872        2.5752531856       25.2836531987
  C         6.5350584486        3.3726965756       27.2888970152
  C         7.6769328571        2.9415636309       23.9830038368
  C         8.2807487794        4.8877452066       22.9800121790
  H         5.6082245778        5.3028774715       24.3914865086
  H         6.5926630241        6.7415537988       24.4496770111
  C         5.1695849169        6.3547066617       26.1486581635
  S         7.0721968332        1.0641273388       26.0787343831
  C         6.4923737678        1.9800638021       27.4855677352
  H         6.3480604832        4.1487638856       28.0347795574
  C         8.0434665453        2.2930335323       22.7982923858
  H         8.4393260595        5.9793454408       23.0358015761
  C         8.5832199214        4.2769270434       21.7947360518
  H         5.0575453847        5.7339171581       27.0622131013
  H         5.4724145072        7.3624455389       26.5161261910
  C         3.7234431578        6.3296796898       25.4872387280
  C         6.1437658253        1.3462932140       28.8308520627
  C         8.4915287217        2.9594547154       21.6794152077
  H         8.0393795878        1.2126933917       22.7508320964
  C         9.0652502387        4.6750497990       20.5345260135
  H         3.4911639838        5.3965359757       25.0644533764
  H         3.7022949768        7.0019053033       24.5800135928
  C         2.5695938668        6.5776979165       26.3728392974
  C         6.1164980518       -0.0487500411       29.0676264414
  C         5.8792258562        2.2241976241       29.9846529354
  C         8.8861980250        2.2644388269       20.4698712143
  C         9.3012627962        3.5368018301       19.7177761709
  S         9.4883968992        6.1380494646       19.7364554109
  H         1.7856546724        7.0899194722       25.8212777007
  H         2.9716553264        7.2610114706       27.0849426334
  C         1.9059710003        5.1813189666       26.7783327757
  N         6.4130191958       -0.9697378985       28.0680928848
  C         5.8377948741       -0.6165459378       30.2813679696
  C         5.7147914786        1.7056716188       31.2087810357
  H         5.8171099687        3.2652060907       29.8129987417
  C         7.7083851426        1.5727561045       19.7330504833
  C        10.1470717147        1.3993871032       20.6724781173
  C         9.7056447688        3.9675404782       18.4312866502
  C         9.8233893768        5.3013160095       18.3505594022
  H         1.1609710911        5.0299214260       26.0293826212
  H         2.5706485558        4.3290779480       26.8002255059
  C         1.1584647256        5.3487276243       28.1170476991
  S         6.2491864608       -2.4739372726       28.7022665739
  N         5.8629437590       -2.0337844243       30.2255761720
  C         5.7136599950        0.2203326967       31.4509137254
  H         5.5466174624        2.3990699446       31.9297145688
  H         7.1995477265        0.9883828890       20.4446412125
  H         8.1566099924        0.9590302612       18.9285008804
  C         6.5981328079        2.4715019747       19.1656843664
  H        10.3339741540        0.7447200592       19.7328936773
  H         9.9587359904        0.8150844795       21.5406063018
  C        11.4433595535        2.0936778873       21.0864627463
  H         9.8092656895        3.2872927451       17.6501815402
  C        10.2252018804        6.0687403293       17.1485704725
  H         0.6839268356        4.2949970621       28.2733328493
  H         0.4778596958        6.1766803337       28.0637421478
  C         2.1607867566        5.4717713476       29.1970771479
  C         5.4122185627       -0.4250264550       32.6812729484
  H         6.8871182885        3.0005154182       18.2801056359
  H         6.4916281839        3.3619435173       19.7943072280
  C         5.1531797392        1.8878437142       19.0446008796
  H        11.3186874157        2.8529847019       21.8860985607
  H        11.7468799422        2.6952149673       20.1807568471
  C        12.6855418824        1.1506487999       21.4311716450
  C        10.2892838386        7.4553298821       17.0248479368
  C        10.5286758770        5.2090107563       16.0152262775
  H         2.9632105604        4.7323985199       29.2171265933
  H         2.5552220241        6.5198768007       29.0989674012
  C         1.3219826156        5.4693895540       30.4202541073
  H         5.5752790702       -1.4769649422       32.7379871706
  C         5.0367549417        0.0381437104       33.9456571670
  H         4.4688059650        2.7464448072       19.1507030666
  H         4.9873881703        1.0871452613       19.8038468880
  C         5.0287211955        1.1927815195       17.7288692173
  H        12.6012388727        0.8248559179       22.4285692065
  H        12.8376194370        0.3029165561       20.8033040364
  C        13.9454714900        2.0392945462       21.4706544262
  N        10.0189666395        8.3826295838       18.0551411631
  C        10.6328167868        8.1107933173       15.8296892843
  C        10.8244021460        5.8630553696       14.7708517630
  H        10.4967120018        4.1344343801       16.0622631919
  H         0.4999713381        4.7006224581       30.3295060074
  H         1.7962639516        5.4003015015       31.3561589758
  H         0.7135616398        6.3393389498       30.5697385669
  S         4.5624992637        1.5939473650       34.3559346962
  C         4.8255235874       -1.0593914547       34.9528442188
  H         5.1399603867        1.9245559058       16.9981543884
  H         5.6710734311        0.3403792987       17.4846932070
  C         3.5134346192        0.8258449855       17.4449586755
  H        13.7178050289        3.0590949710       21.9009307853
  H        14.2920118811        2.3110134315       20.4356850283
  C        15.0338838543        1.3448998017       22.2181495608
  S        10.2045003864        9.8862127481       17.4782086607
  N        10.6347673200        9.5405699767       15.9776917970
  C        10.9834653196        7.3500210156       14.7011504161
  H        10.9347534072        5.2281531031       13.8570303720
  C         4.2342428900        0.8815505788       35.9345272624
  N         4.3500921137       -0.4662957164       36.0676212771
  O         4.9482619903       -2.2891406841       34.8243562760
  H         3.3099862999        0.5589684796       16.4251512943
  H         2.9505797883        1.7151458959       17.6051881059
  C         2.9760128897       -0.2993193367       18.3212739977
  H        14.6804406090        1.2972801249       23.1952704625
  H        15.2465434488        0.3493915536       21.8891355242
  C        16.3386585145        2.1782629605       22.2076454035
  C        11.4026586531        8.0745437914       13.5528940082
  S         3.7186401325        1.8311755138       37.2036732493
  C         4.2622877437       -1.2837930331       37.3241966393
  H         3.1992940886       -0.2703098226       19.3732736879
  H         1.9018476821       -0.2013754479       18.4194914823
  C         3.1895986823       -1.7442873418       17.9036641615
  H        16.4108557432        3.0702740581       22.8198913739
  H        16.6250335265        2.4915947825       21.1943619922
  C        17.4956036432        1.2511491323       22.7998289369
  H        11.0919272486        9.0684900368       13.5840209320
  C        11.8269314594        7.7786628220       12.2848003662
  H         3.3918440268       -0.9035195391       37.8968105235
  H         4.2286923718       -2.2984707583       37.1130853154
  C         5.5308808814       -1.2883453221       38.1964653640
  H         3.1303853763       -2.3781269429       18.8516630038
  H         4.2388199922       -1.8548349148       17.5991404457
  C         2.2413649938       -2.3308331931       16.8793752615
  H        17.2013867335        0.8509384539       23.7259820215
  H        17.6542927386        0.3944965503       22.1585311733
  C        18.8621534503        1.9878623298       22.7723262489
  S        12.2138380673        6.2500915232       11.5765356603
  C        11.9283192455        8.8935577475       11.3295566985
  H         5.3402427488       -0.8094682225       39.1373100907
  H         5.9659337062       -2.3138158708       38.3820913979
  H         6.2825862565       -0.6832813861       37.6590673808
  H         1.2271483411       -2.2429848778       17.1847823084
  H         2.3647147990       -3.3890606053       16.6421968982
  H         2.2328349336       -1.7949400513       15.9655351240
  H        19.0588716009        2.1533818446       23.8122737872
  H        18.8410653165        2.9023316172       22.1767279987
  H        19.6454002392        1.3765666100       22.4311582193
  C        12.5599568120        7.1075507244       10.0796107707
  N        12.4170666319        8.4514185132       10.1537659908
  O        11.7094897301       10.0777161826       11.6389850398
  S        12.8956804168        6.2994692814        8.5370233131
  C        12.5373193746        9.3891105428        8.9701238708
  H        12.8559572721       10.3948782383        9.3313359816
  H        13.2177965234        8.9592031530        8.2266190172
  C        11.1640844939        9.5035198818        8.3028112437
  H        10.3393220999        9.2618285745        8.9400216123
  H        11.0194885862       10.5013763076        7.8957890828
  H        11.0329212318        8.7038088404        7.5112976304
  H        21.8592857909        8.4388858021        3.7561816027
  C        22.2906390338        9.3436201456        3.3724018616
  H        23.0300235172        9.0885877501        2.5506851762
  C        22.9227747739       10.1489658689        4.5383359617
  C        21.2882095239       10.1428835222        2.5489056600
  C        22.1143736049       10.5559607283        5.7483600408
  H        23.7790926214        9.5904149414        4.9375332593
  H        23.1085288614       11.0828651967        4.0214666697
  H        21.7765313855       10.8809060960        1.8670006886
  H        20.7432292612       10.7373852484        3.2844265091
  H        20.6012430212        9.4771766422        1.9883489651
  C        21.4467799265        9.4173027730        6.5035854603
  H        22.8293504279       11.0418146925        6.4718555454
  H        21.5391778729       11.4960383206        5.6008942663
  C        20.4849634377        9.7542778333        7.6511849925
  H        22.2701196655        8.8092787665        6.9896524509
  H        20.9359828223        8.7080845217        5.8237184510
  C        19.1855742870       10.5229019010        7.3471843988
  H        21.1179315889       10.1863599778        8.4689341500
  H        20.1526224376        8.8168096266        8.0058081619
  C        17.9456899090        9.6611497583        7.0713737680
  H        18.9484993236       11.0892555212        8.1968349016
  H        19.3916756799       11.2427023019        6.5469396753
  C        16.6084532203       10.4761930934        6.9770498329
  H        18.0856448346        8.9131884424        7.8599833310
  H        18.2161705030        9.3146771894        6.0777081918
  C        16.8918130855       11.8477674808        6.3718760653
  C        16.2592436316       11.2118157033        8.2497360883
  C        15.4448080885        9.7093962008        6.2951066313
  C        16.7790691861       12.9316249469        7.1487961758
  C        17.3048640660       12.2436546853        5.1097547609
  C        16.3838367325       12.5676714875        8.3651208456
  C        15.8844352391       10.6008219575        9.4242265967
  H        15.8698568118        9.2362874053        5.3888937939
  H        15.0500843525        8.9460722730        6.9620559057
  C        14.1976183254       10.5675118419        6.0093062011
  S        17.0705799926       14.4300774446        6.3813920094
  C        17.3958616039       13.5679664804        4.9437855990
  H        17.7103415742       11.4716525039        4.4113731505
  C        16.0576947575       13.1676235017        9.5493155695
  H        15.9686643769        9.5554099439        9.2222577152
  C        15.6435692293       11.2043383000       10.6391052444
  H        14.4556561688       11.4748477585        5.4734466796
  H        13.8062509466       10.9048177967        6.9743083631
  C        13.0917100055        9.8791819745        5.2593922806
  C        17.8845277112       14.2146197447        3.6701738070
  C        15.6370610310       12.5163852701       10.7051970083
  H        16.0578157093       14.2213176218        9.4683115497
  C        15.1674385503       10.8719146782       11.8546748428
  H        12.0916977516       10.2944082980        5.6039432339
  H        13.0682126091        8.7913114653        5.4762900440
  C        13.1576713212       10.0652891994        3.8123680295
  C        17.9500555213       15.5831089388        3.3693823717
  C        18.2968552338       13.3194785772        2.5378449847
  C        15.1813670976       13.3160975817       11.9242057021
  C        14.9209175385       11.9761050182       12.6425061362
  S        14.9028907585        9.3649088821       12.6391102520
  H        14.1004117957        9.6357734421        3.4500802361
  H        13.3170881892       11.1373133427        3.5618961255
  C        11.9032771820        9.4467760208        3.0988752583
  N        17.3787934538       16.5296630940        4.2526720274
  C        18.2822333044       16.1150623337        2.1470628810
  C        18.6529796245       13.8106067670        1.2922973568
  H        18.1714519351       12.2895929645        2.7074558045
  C        13.9283244585       14.0992873758       11.6123775657
  C        16.2325438283       14.2076524143       12.5164273765
  C        14.6013834870       11.6153925901       13.9671336421
  C        14.5012539980       10.2357031535       14.1054146983
  H        11.8747889958        8.4848531848        3.4880322673
  H        11.0456731143       10.0174546643        3.3508839822
  C        11.8777537075        9.5609675156        1.5523779019
  S        17.4660346466       17.9595796483        3.5522018546
  N        18.0470618056       17.4926466110        2.1157609811
  C        18.5950425776       15.2769042375        1.0833233803
  H        18.8487519919       13.1455511845        0.5426754954
  H        14.1399048747       14.7998955283       10.7875876631
  H        13.7544200216       14.8194995389       12.4197045664
  C        12.6160108982       13.3219825447       11.4306354312
  H        16.4350084575       15.0612775689       11.7771790551
  H        15.8792581821       14.6178566774       13.4741285157
  C        17.4998411794       13.4320116192       12.8920018198
  H        14.4080997949       12.3241207248       14.7562606005
  C        14.2333004139        9.4549597393       15.3807709655
  H        11.2030071505       10.3214914406        1.2306867251
  H        11.5162216014        8.6322603661        1.0541867009
  C        13.2042503030        9.9315273073        0.8780866932
  C        18.8783279919       15.9830440729       -0.1252100710
  H        12.7179522695       12.6247758476       10.5924752859
  H        12.3909952629       12.6512741827       12.3226661241
  C        11.4379053252       14.1982413240       11.0443446321
  H        17.9546311306       12.8367322719       12.1562304544
  H        17.2233824343       12.7777542108       13.6636755633
  C        18.5565154404       14.3702320622       13.5094469965
  C        14.2105428316        8.0934686338       15.5464422969
  C        13.8755627333       10.2273106692       16.6032617974
  H        13.5264361729       10.9224562974        1.2214357069
  H        14.0132982589        9.2821037781        1.1217203299
  C        13.1004351049        9.9394392363       -0.6374007326
  H        18.8333509210       17.0122932073        0.0214790566
  C        19.2294165853       15.6983524417       -1.3800931835
  H        11.7288095613       14.8325362509       10.2199626479
  H        11.0838559557       14.8283097325       11.8789180514
  C        10.3047963265       13.2519739350       10.7786392771
  H        18.8335506212       15.1413132975       12.8550937457
  H        18.1736791313       14.8315380399       14.3899566762
  C        19.8951620082       13.6355742416       13.8021439617
  N        14.5419546691        7.2339836750       14.5217148950
  C        13.7564304653        7.4544446231       16.6580667622
  C        13.4325008576        9.5599577409       17.7742807648
  H        13.9583112579       11.3184955473       16.6553863635
  H        14.0585634646        9.6073375445       -0.9692716201
  H        12.8185601261       10.9353999165       -0.9671814992
  H        12.3338876654        9.3028057871       -1.0669997494
  S        19.5324002659       14.0985626529       -1.9430002902
  C        19.2247239967       16.7535910678       -2.4184007129
  H        10.7215647217       12.5236429105       10.1631034622
  H        10.1908109313       12.8633063483       11.7306634640
  C         9.0296903840       13.9749430319       10.2509137871
  H        20.4417778258       13.6257438406       12.8414370666
  H        19.5986251005       12.6703251326       14.1119134489
  C        20.7066160854       14.4158097593       14.8227809297
  S        14.5018256987        5.7374746774       15.1358379037
  N        13.9125282790        6.0687767335       16.5332955935
  C        13.3589430839        8.0640173180       17.8542345434
  H        13.1740060769       10.0871636959       18.6769496160
  C        19.7635206505       14.8036128470       -3.5209291670
  N        19.5790576995       16.1784469625       -3.5804197131
  O        18.9443535009       17.9482373920       -2.2564024406
  H         8.2940138072       14.1439420677       11.0846221365
  H         9.2055958643       14.9596259875        9.8279965150
  C         8.3859406366       13.0639595540        9.2529164728
  H        20.1277385427       14.5299302816       15.7428130374
  H        21.5323015589       13.6482427411       14.8855988861
  C        21.2261650206       15.7453688120       14.3545234478
  C        13.0930448403        7.2898122443       18.9886109405
  S        20.2409870049       14.0589489650       -5.0285864405
  C        19.3688180660       16.9504458013       -4.7801280613
  H         9.0541282361       12.8300146062        8.4797197143
  H         8.2637808640       12.1090044799        9.8101691768
  C         6.9961794563       13.5916423304        8.7140878923
  H        20.5460221663       16.5565245149       14.5551108999
  H        21.2944771179       15.6676258109       13.2297178877
  C        22.5319791503       16.0972190865       14.9840127670
  H        13.4769902705        6.3274642968       18.8765359881
  C        12.5860996480        7.5439510556       20.2610339666
  H        20.0361186091       16.6018812496       -5.5376898535
  H        19.7537836992       17.9343200014       -4.4730915541
  C        17.9423474384       16.9780973768       -5.2634515437
  H         6.7876622673       13.0647295725        7.7840683289
  H         7.0522027807       14.6444751490        8.4411175107
  C         5.9136546622       13.3606680286        9.7561944615
  H        22.9319955611       15.2210357317       15.5056225419
  H        23.1645800119       16.3338706396       14.1774864323
  C        22.5102359644       17.2171741704       15.9715515864
  S        11.8049644962        8.9578369591       20.7725225417
  C        12.5662916743        6.5077340405       21.3055096432
  H        17.6351813172       15.9912556098       -5.7869014183
  H        17.8190830749       17.7188430708       -6.0527016958
  H        17.2051571354       17.2432426206       -4.5735723057
  H         6.3244952624       12.5795467173       10.3435771311
  H         5.9269685758       14.1548779490       10.4764678842
  H         4.9389870431       13.1621809305        9.4061927811
  H        22.3998555540       18.1548815447       15.3906764650
  H        21.6340592267       17.1124135871       16.6497068980
  H        23.4737358389       17.2225244926       16.5493729603
  C        11.4947498362        8.2227487038       22.3131105936
  N        11.9089859437        6.9380185943       22.3564788910
  O        13.0535639795        5.3980377445       21.1479561423
  S        10.5771122198        9.0129699222       23.5930593892
  C        11.8658852938        6.1341630449       23.6246812265
  H        11.7419557539        5.0682338925       23.3715272925
  H        10.9449227945        6.3462776976       24.1059623275
  C        13.1736683355        6.3182411983       24.3810514930
  H        14.0084403233        5.8435800303       23.7697754291
  H        13.2146371128        5.9109323342       25.3606449838
  H        13.3226711332        7.4043266424       24.4148438084
