352
 i =    74700, time =    74700.000, E =        25.4071944225
  H        11.4960539355        7.6631469123       31.9779619874
  C        11.6095714571        6.6293383816       31.9488284167
  H        12.6725376994        6.3401675656       31.9141818892
  C        10.9372521106        6.1229986498       30.5960711230
  C        10.8535811305        5.9308195026       33.0571666320
  C        11.8820432730        5.9061348468       29.4361536718
  H        10.2936581218        5.2676923906       30.8007925658
  H        10.2752549618        6.8973956867       30.3467496401
  H        11.2519166744        4.9062167943       32.8799262581
  H        10.9936429446        6.3101642949       34.0873626266
  H         9.7961429730        6.1138103970       32.7971923890
  C        11.2354866153        5.2129272305       28.2216569670
  H        12.5805174028        5.1692512515       29.8477972378
  H        12.4918570440        6.7892495424       29.1891095770
  C        10.2329362310        6.0785733698       27.3662527153
  H        12.0228128451        4.8546609694       27.5955803854
  H        10.8006672690        4.2439617967       28.5436965748
  C         9.5315645012        5.2727343067       26.3291292506
  H        10.8880981856        6.7869899129       26.8378081888
  H         9.6003662669        6.6257178237       28.1459453907
  C         8.3361062020        5.9794293798       25.8143153224
  H        10.1591971201        5.0520693282       25.4702270257
  H         9.3581652485        4.2598885733       26.8244661669
  C         7.2026222802        5.0687955579       25.1480370402
  H         7.8180625349        6.5747777676       26.5823937634
  H         8.7125872458        6.6619557767       25.0560790622
  C         7.0816857075        3.6493687191       25.8171377054
  C         7.5971938477        4.3744726506       23.8583825674
  C         5.8396068013        5.6873754427       24.6880533593
  C         7.2533479487        2.5689744276       24.9423529785
  C         6.5996611097        3.1586648277       27.0189661630
  C         7.6204948556        3.0212505014       23.6567848874
  C         8.0569697078        5.1366882436       22.7651397291
  H         5.3802574312        5.0883873882       23.9116703882
  H         6.1127069787        6.6431036756       24.0658110219
  C         4.8506436692        5.8918222239       25.8960348959
  S         7.1482008691        1.0302525528       25.7060147553
  C         6.5773768763        1.8039683049       27.1326294778
  H         6.4794068408        3.9092023514       27.7761177319
  C         8.1144683536        2.4856042417       22.5375593665
  H         7.9815634450        6.1801978999       22.9062613109
  C         8.4182439429        4.5804377818       21.5783549522
  H         4.8333545738        5.0413312921       26.5955235217
  H         5.1784560417        6.7529909738       26.4890912074
  C         3.4279649773        6.3326961720       25.3556862871
  C         6.0553118375        1.1053216458       28.3002930396
  C         8.4484756441        3.2616524720       21.4457378668
  H         8.1364573531        1.4481966356       22.5111873219
  C         8.8232194284        5.0103049175       20.3674199658
  H         2.9365955427        5.6550437927       24.7141134816
  H         3.5459135694        7.3139968732       24.8925060593
  C         2.4649352332        6.6928163609       26.5118820013
  C         6.0140944433       -0.2717851770       28.5609469608
  C         5.5608917814        1.9301228372       29.4227342833
  C         8.8248734406        2.5795000661       20.1791064301
  C         8.9774443069        3.9396116963       19.5516999195
  S         9.1722896656        6.5212771606       19.6586396095
  H         1.5173217699        6.8791363946       26.0192699218
  H         2.7207931010        7.6038668753       26.9399532727
  C         2.3443473135        5.5735818777       27.6627041532
  N         6.4677330687       -1.2716859332       27.6900174776
  C         5.7406493259       -0.8173807475       29.8241107709
  C         5.3540576083        1.4179712231       30.7023208788
  H         5.5644341989        2.9952159167       29.4332388638
  C         7.6722250634        1.7564113837       19.6111729216
  C        10.1573439114        1.7623823476       20.2255639199
  C         9.2058609220        4.3548556729       18.2315235745
  C         9.4707319699        5.7045777279       18.1138671620
  H         2.2541070244        4.5760612563       27.3001298042
  H         3.2681776872        5.5821233804       28.2670603170
  C         0.9755689662        5.8461853221       28.4280048514
  S         6.2802357235       -2.7503256150       28.3253073311
  N         5.9388393953       -2.2196856340       29.8553377318
  C         5.4114071655       -0.0387826834       30.9739911722
  H         5.1689472193        2.0541064012       31.5285499511
  H         7.5113810039        0.9337175272       20.2525002780
  H         8.0129500092        1.2775274727       18.6788973809
  C         6.3709284998        2.6178010558       19.3743264461
  H        10.4210225607        1.6184658677       19.2279561817
  H         9.9666143567        0.7988277864       20.6056629425
  C        11.2295377394        2.4064536053       21.1708068839
  H         9.4641575429        3.6506937796       17.5095549122
  C         9.7993636356        6.4953110228       16.9229666957
  H         0.0672337570        5.9644493999       27.8345506430
  H         1.1481400505        6.8520298065       28.8016605364
  C         0.7245817792        4.8166293643       29.6037003452
  C         5.0804754321       -0.7009879943       32.1639594644
  H         6.5312400850        3.1109162274       18.4377705571
  H         6.1675794362        3.4683003859       20.0090748282
  C         5.1122645598        1.7182309001       19.2725947351
  H        10.9265902176        2.5403990742       22.1917054327
  H        11.3917707091        3.4128535119       20.8061961843
  C        12.6101263423        1.7537921845       21.1896343492
  C         9.9762883202        7.9039711012       16.7023175688
  C         9.9173998373        5.6540300188       15.6887872302
  H        -0.2915816548        4.9300861639       29.8656238799
  H         0.8343631558        3.8152652968       29.3190086606
  C         1.6294080271        5.0204026364       30.7230090991
  H         4.9786528036       -1.7881080602       32.0226413740
  C         4.7371032014       -0.2763082733       33.4638380089
  H         4.3070289372        2.4532823211       19.3857542198
  H         4.9161138033        0.9891990685       20.0582891413
  C         4.9831091476        0.9694449788       17.9490314233
  H        12.5966060655        0.8952888325       21.8307066025
  H        12.8408961088        1.3641050529       20.1987465916
  C        13.8220702038        2.6206993643       21.5659826299
  N         9.7705663809        8.9085513637       17.7109480451
  C        10.4060493923        8.4340020532       15.5385742545
  C        10.2294098739        6.2343147325       14.4583332174
  H         9.7240957600        4.6165203601       15.6810377499
  H         1.4997473860        6.0388421425       31.1314616462
  H         1.4814749548        4.3773777313       31.5771593640
  H         2.7385724248        4.8222652011       30.5609869107
  S         4.2872848081        1.3432132400       33.9848758481
  C         4.6240296531       -1.3170037680       34.5736003077
  H         5.3825515440        1.4654431604       17.1154976411
  H         5.5906350957        0.1217913220       18.0527996466
  C         3.5827830301        0.5545445672       17.5851825230
  H        13.4950655055        3.2789981375       22.3933500993
  H        14.0978297277        3.2795418439       20.7381260956
  C        14.9325522219        1.7355816630       22.1422616691
  S        10.1123973361       10.3422198354       17.0354931858
  N        10.3950893298        9.8577668693       15.5592854917
  C        10.6158148142        7.7052296734       14.3159751190
  H        10.2470142970        5.5693975813       13.6227571719
  C         4.0544348814        0.6309316999       35.6144708484
  N         4.1239042049       -0.7118841827       35.6782928657
  O         5.0607161268       -2.4347000645       34.4802902998
  H         3.6596011413        0.0247068242       16.6376930194
  H         2.9291272519        1.4450624915       17.5056659691
  C         3.0882496662       -0.4981146788       18.6236539255
  H        14.4245763885        1.1522611762       22.9053635944
  H        15.3900923724        1.2296799965       21.3117908196
  C        15.9770653876        2.6234799990       22.8008008342
  C        10.8795379036        8.4050660616       13.1211321121
  S         3.6716221755        1.4539364907       37.1251310569
  C         4.1135066568       -1.4828609629       36.8970044662
  H         3.8363932803       -1.2488554892       18.8786455434
  H         2.7651291619        0.0094391027       19.5496373554
  C         1.7632591871       -1.1905956032       18.2413524640
  H        15.4995519007        2.8317909081       23.6909888862
  H        16.1056078021        3.6086509444       22.2489794003
  C        17.1836170356        1.9279725916       23.2515662522
  H        10.9339533290        9.4823435429       13.1335196193
  C        11.3688847130        7.9140492970       11.9219845831
  H         3.4422689379       -1.1073027527       37.6268667918
  H         3.6283392274       -2.4034709111       36.6358391269
  C         5.5845462914       -1.5793070160       37.4646582721
  H         0.9657645717       -0.4629040543       18.1700170616
  H         1.5359821536       -1.7676016619       19.1775454711
  C         1.8163298759       -2.0684169545       16.9814958840
  H        17.5633499654        2.5606939690       24.0361538465
  H        16.9982233161        0.9812470074       23.7472895017
  C        18.2530126391        1.7954428359       22.0943576775
  S        11.9502556819        6.3014779980       11.6289568022
  C        11.5553093310        8.8604946468       10.8042517641
  H         5.6738066919       -1.1212645894       38.4961244461
  H         5.8901842899       -2.5788800431       37.6117763568
  H         6.3610537241       -1.0718940843       36.8844246975
  H         1.3129434875       -1.5167894023       16.1893141141
  H         1.2971413337       -3.0343035896       17.1977533794
  H         2.8419239606       -2.2261216212       16.6064935298
  H        19.1762827431        1.5222027456       22.4237667135
  H        18.3595688380        2.7208593985       21.5889808549
  H        17.8496069036        1.1124233168       21.3362134760
  C        12.3692472791        6.9293321181        9.9919846078
  N        12.1354237797        8.2326039588        9.7876973741
  O        11.1828816377       10.0013715205       10.8848664552
  S        13.1572008752        6.1225706811        8.5678425297
  C        12.1984242252        8.8820629744        8.3983527260
  H        12.4931788042        9.9336227627        8.3962666540
  H        12.9993431411        8.4199119263        7.7411221719
  C        10.8359153051        8.7758894991        7.7167142002
  H        10.8974287265        8.7036466952        6.6277815819
  H        10.4050704050        7.9085930661        8.1426075692
  H        10.1703589050        9.5826278508        7.9408196913
  H        21.4662254062       11.3021338650        2.7329612987
  C        21.8094331286       10.3153963455        2.9129376110
  H        20.8535918566        9.8253399792        3.0454597475
  C        22.8053100754       10.4049774929        4.0572504170
  C        22.5014716965        9.8416574645        1.6549013185
  C        22.0801507496       10.3238934519        5.3796136378
  H        23.4423787665        9.5211303958        3.9698059641
  H        23.4605500287       11.3712078862        3.9212372454
  H        22.9574962251        8.7993637510        1.7034471566
  H        23.2511544102       10.6097099593        1.3925084285
  H        21.8300940377        9.8625219468        0.8243581792
  C        21.4817546585        9.0068028996        5.8242766192
  H        22.8091731297       10.5533855559        6.1268902123
  H        21.4246966457       11.1836893354        5.3401501126
  C        20.4607518016        9.3372414557        6.9371169744
  H        22.2941756547        8.3881202092        6.1422961619
  H        20.9976041537        8.5480637611        4.9784883690
  C        19.0623274876        9.8299122132        6.3054981813
  H        20.9644597546       10.0525912854        7.6110263826
  H        20.2240173662        8.5334425978        7.5488168757
  C        18.0387275638        9.8206518292        7.3774666570
  H        19.2717448715       10.7997567707        5.9899170977
  H        18.7128531962        9.2457544873        5.4293026297
  C        16.7382286934       10.6470091280        7.0101908606
  H        18.3824901143       10.2819246735        8.2955027825
  H        17.7983414619        8.7593925602        7.5438861842
  C        16.9988785090       11.9728604009        6.2605847365
  C        16.2457677529       11.3712293497        8.1505039326
  C        15.5851318845        9.9140424848        6.2604015185
  C        16.7487244702       13.0965748248        7.0125479093
  C        17.4166354888       12.2804846583        4.9938400879
  C        16.2770178438       12.7088185564        8.2547107455
  C        15.7727205211       10.7288714140        9.2372578778
  H        16.1215839875        9.4709312616        5.4267340884
  H        15.3419318432        9.0215429651        6.9133527035
  C        14.2927044933       10.7099471123        5.9072225718
  S        17.1414032451       14.5453296594        6.2219933766
  C        17.5463053911       13.6384838872        4.8461369444
  H        17.5639311763       11.4840377831        4.2931671555
  C        16.0086856240       13.3244873523        9.4203407658
  H        15.7360271149        9.6277997643        9.2032044256
  C        15.4176073668       11.3174088328       10.4238631277
  H        14.5269522328       11.7624055713        5.6403359040
  H        13.8180386846       10.6809890015        6.8825884364
  C        13.3193770072        9.9661945701        5.0994879433
  C        18.0006728892       14.2945558776        3.5181081756
  C        15.5256327464       12.6025575003       10.5168502203
  H        16.0883680879       14.4321884975        9.2930193499
  C        15.0804092743       10.9978450782       11.6812069716
  H        12.3243406106       10.3852457960        5.0100224320
  H        13.1352803127        9.0234110462        5.6295676451
  C        13.8644448992        9.6216572383        3.7619245071
  C        18.0358965548       15.7010263750        3.2705366250
  C        18.3525825192       13.4006556128        2.3737812391
  C        15.2777979832       13.3764735782       11.7707767559
  C        15.0276857382       12.0827538395       12.5125184653
  S        14.8379584849        9.5226140759       12.4558967613
  H        14.1868208918        8.6416196067        3.7948248124
  H        14.7816439112       10.2249770052        3.4745448249
  C        12.8081910665        9.7903646423        2.6571491775
  N        17.6849254113       16.6885450076        4.1362988192
  C        18.2948030234       16.1432936267        2.0038019510
  C        18.6157465662       13.8246481965        1.0796679719
  H        18.2958428646       12.3492471098        2.5240027948
  C        13.9867811599       14.1977120288       11.6009857075
  C        16.4451598222       14.2313397817       12.2359673816
  C        14.8065122913       11.7010981855       13.8567314322
  C        14.6494465411       10.3411877584       13.9614759224
  H        11.9199013848        9.2059861715        2.9387783880
  H        12.4024826147       10.8205033052        2.6879996800
  C        13.2710770356        9.2267076123        1.2860860353
  S        17.7263942228       18.1131639960        3.2519983387
  N        18.3936594012       17.5162961448        1.8913610747
  C        18.6929817230       15.3158735385        0.8961774585
  H        18.7243684558       13.2296799411        0.2248294722
  H        14.0253950502       15.0583148562       10.9200561834
  H        13.7790152298       14.6223474685       12.6453866043
  C        12.7501444097       13.3350752424       11.1474672702
  H        16.6121809489       15.1511530036       11.6680431233
  H        16.1388320051       14.7429996535       13.1836543224
  C        17.7121949887       13.4572033669       12.4400814429
  H        14.8256004619       12.4851408886       14.6285265313
  C        14.3254384061        9.5687309743       15.1961004419
  H        12.7618178816        8.3497021884        0.8966455047
  H        14.3345067949        9.0654517586        1.2506128235
  C        12.9824706657       10.3285320047        0.2965353057
  C        18.8914114465       15.9969249191       -0.3683884866
  H        12.9794145653       12.8775996454       10.1692618559
  H        12.4976406000       12.5544082894       11.9066073575
  C        11.5420354603       14.2215390117       10.9505222360
  H        18.1207211264       13.1821611382       11.5339633608
  H        17.4875784528       12.5903986264       13.0250284454
  C        18.6718911900       14.2370050294       13.2877942585
  C        14.1381528757        8.1458892242       15.2989016899
  C        14.0995597564       10.2942066312       16.4245326978
  H        13.2328892064       11.2637956668        0.7884093983
  H        13.7239313995       10.1618735055       -0.5045756757
  C        11.5559957990       10.2692772900       -0.3197867366
  H        18.6036158296       16.9576709055       -0.3615751621
  C        19.3060003211       15.5766550259       -1.5973010608
  H        11.6996785433       14.8775748049       10.0554107683
  H        11.3630725246       14.8145545970       11.8520926773
  C        10.3210393533       13.3112409740       10.8269392824
  H        18.8410668729       15.2556594640       12.9983827206
  H        18.1697943400       14.3241356683       14.2331648392
  C        20.0492645881       13.5576605212       13.3735186217
  N        14.2435703937        7.2591156458       14.1663704854
  C        13.6787415496        7.4507855461       16.4237264266
  C        13.7547751146        9.6038695613       17.6321331742
  H        14.2324545591       11.3705780719       16.4800647715
  H        11.4254116153        9.3843128927       -0.9458680306
  H        11.1443401334       11.1688070774       -0.8813591604
  H        10.9786038719       10.0894370610        0.5710784917
  S        19.7058386322       14.0722363865       -2.0296695701
  C        19.3883756840       16.6012505337       -2.6610692441
  H        10.5732771341       12.4191496303       10.3705024726
  H         9.9827332945       13.1396231774       11.8396922661
  C         9.2727888317       14.0189284878       10.0463562556
  H        20.5024096489       13.2350996815       12.4110419403
  H        19.9500308433       12.6355979874       13.9855001273
  C        21.1931444717       14.4219857230       14.0046377896
  S        14.0176675858        5.7074606478       14.6583205042
  N        13.7053920653        6.0638361295       16.2462443366
  C        13.3713870325        8.1051297483       17.6197020303
  H        13.6145437082       10.1467492940       18.5574709134
  C        20.0360735444       14.6529859867       -3.7374271769
  N        19.8352857314       15.9988803286       -3.8094180572
  O        19.2017239708       17.8095337836       -2.4338750447
  H         9.0694835794       14.9638687826       10.5508171882
  H         9.7220663570       14.2066824563        9.0587223625
  C         8.1441455078       12.9710961243        9.8268621283
  H        20.7563536771       14.6832121376       14.9556735978
  H        22.0539921519       13.8124477986       14.1011618856
  C        21.8012465869       15.5485204211       13.1967950923
  C        13.0038715876        7.3903447167       18.7537386434
  S        20.3977510661       13.6463238412       -5.1076275334
  C        19.7952718353       16.6644209282       -5.0758431031
  H         8.6174243806       12.0983947035        9.3599984823
  H         7.8437511052       12.7830102814       10.8246263531
  C         7.0810231894       13.5838440917        8.8713042843
  H        21.0122850811       15.9370843969       12.5596755528
  H        22.6475869822       15.1341978633       12.7285542493
  C        22.1783334809       16.7748024730       14.0470076917
  H        13.0290771561        6.3075767266       18.5646745450
  C        12.3713059522        7.7634727554       19.9456719438
  H        20.4962412381       16.2059156855       -5.7158841825
  H        20.2176373602       17.6669125707       -4.8607958914
  C        18.3774691980       16.7316861073       -5.7629817674
  H         6.7796852176       12.9292004099        8.0651636185
  H         7.6113062309       14.3579077401        8.3206487786
  C         5.9270789098       14.2151501911        9.5997648334
  H        22.7045081960       16.4390357794       14.9658185316
  H        22.8516762597       17.4876359817       13.5945371806
  C        21.0148784588       17.6439459462       14.5510189813
  S        11.7864885706        9.3913463949       20.1545820762
  C        12.1730906615        6.8983556022       21.1524384620
  H        18.5217888356       16.7993912864       -6.8194458999
  H        17.7385288611       17.5454114990       -5.4152714113
  H        17.7469284695       15.8750282847       -5.5926023439
  H         5.1152285104       13.4979052709        9.7630311250
  H         6.1944043929       14.8124696644       10.4708687037
  H         5.5089957285       14.9929567180        8.9823887042
  H        21.3659129458       18.6432860121       14.5914510476
  H        20.1248685304       17.6843088617       13.9684662276
  H        20.7083703884       17.2441033421       15.5194267796
  C        11.3022399427        8.9359279964       21.7395845773
  N        11.5483220346        7.6996387606       22.0511402170
  O        12.5690214819        5.7359699246       21.2081669384
  S        10.7408945221       10.0524605749       23.0342230413
  C        11.3445608032        7.1498511598       23.3646742772
  H        11.2901505972        6.0641258076       23.0469447659
  H        10.3504637277        7.4492346878       23.7393077315
  C        12.5825794369        7.3865258051       24.2225666534
  H        13.4786140310        6.9165489014       23.7714525947
  H        12.5882839259        6.8808298278       25.2097928879
  H        12.7496040228        8.5035047513       24.3683519452
