352
 i =    49600, time =    49600.000, E =        25.4934109610
  H         9.9382166389        7.4965576015       31.9655138024
  C        10.7850320750        6.9436322375       32.3291278264
  H        11.7144734358        7.5269845624       32.4178743428
  C        11.0504062543        5.8122883183       31.3159111893
  C        10.6662196196        6.4269248359       33.7332733688
  C        10.8440498235        6.3406017990       29.8946584239
  H        12.1062919406        5.4062430052       31.3927098064
  H        10.2901856356        5.0524123779       31.3868879067
  H        10.7318961824        7.1983039343       34.4849953772
  H         9.7160909722        5.9319170793       33.8476948058
  H        11.4204930539        5.7054044205       33.9231890564
  C        10.3874557545        5.3326998139       28.8409756193
  H        11.8049120958        6.8046406608       29.6392817301
  H        10.1978559355        7.2649559561       29.7535196268
  C        10.7017574269        5.7515019045       27.3828117914
  H        10.8454131993        4.4102336048       29.2296948873
  H         9.2916096862        5.0628366140       28.9522158930
  C         9.7444120558        5.1254533018       26.4007531616
  H        11.7951103834        5.4410860198       27.2377744887
  H        10.7138556591        6.8521560084       27.3037426892
  C         8.4664973921        6.0273871535       26.0925828002
  H        10.2224948159        4.9019693316       25.4563650229
  H         9.4701652688        4.1678030672       26.8232870727
  C         7.3753623113        5.2321280053       25.3918332582
  H         8.1166685435        6.4309934733       27.0272253159
  H         8.6491538662        6.9298454409       25.5013166726
  C         6.9858260613        3.8817888262       26.0883196128
  C         7.9166456933        4.5057964113       24.1802355919
  C         6.1048059195        6.0904888716       25.0593403080
  C         7.2109147488        2.7947343337       25.2594933220
  C         6.6221830296        3.5069612539       27.3504849970
  C         7.8347275586        3.1895049516       24.1041627184
  C         8.4435577318        5.1040392449       23.0515937062
  H         6.2779767201        6.8043567353       24.2842973964
  H         5.7370780972        6.6782854169       25.9590275102
  C         4.9438833828        5.2675608281       24.5019758354
  S         6.9173387128        1.2784321999       26.0718883881
  C         6.4752011230        2.1619251731       27.4975387155
  H         6.4729258706        4.3195650900       28.0125988993
  C         8.1997223080        2.4883652998       22.9413278226
  H         8.6796709401        6.1584602129       23.0881442128
  C         8.8368723793        4.5038255020       21.9190566308
  H         5.3201579679        4.8004000029       23.5204215113
  H         4.7142074949        4.5122692509       25.2402298415
  C         3.6713095653        6.1279920118       24.2682799962
  C         6.0333908940        1.5030440334       28.7740135346
  C         8.6891391780        3.1694453686       21.8190886487
  H         8.1904493680        1.3487711861       22.8331343796
  C         9.3472970867        4.8744874095       20.7079229396
  H         3.1818924412        5.5958250664       23.4383059714
  H         4.0234481880        7.0674723889       23.8512755986
  C         2.7437527600        6.3511484605       25.4791001245
  C         6.0485300304        0.1276295410       29.1101223465
  C         5.6096644526        2.3686986821       29.9345405805
  C         9.1827298478        2.4205051933       20.6244098005
  C         9.4991136258        3.8197588050       19.8674602329
  S         9.7675269960        6.3758450209       19.9205945664
  H         2.0635147179        7.0768858931       24.9774126602
  H         3.2089844414        6.8776521174       26.3043303503
  C         1.9842787890        5.1343696188       25.9737850291
  N         6.3537397873       -0.9080171787       28.1988527451
  C         5.7097249069       -0.4172509537       30.3307185191
  C         5.2834768078        1.8387785480       31.1983775237
  H         5.3187969262        3.3785554351       29.7105348644
  C         8.1875035560        1.6295575836       19.7294859729
  C        10.5656842093        1.7317170548       20.8801756184
  C         9.8538821650        4.2367752306       18.5466137053
  C         9.8983459368        5.6004362823       18.4601449502
  H         1.0426078606        4.8417481072       25.3530681459
  H         2.7111317276        4.3278362291       26.1542820204
  C         1.4203547650        5.4294289744       27.3652825067
  S         6.2984762890       -2.3201889823       29.0364294723
  N         5.8194054250       -1.8195062358       30.4814572237
  C         5.3551306281        0.3773624577       31.4347046188
  H         5.0734602495        2.5187067666       31.9399228937
  H         8.1205614710        0.7088641049       20.1531275110
  H         8.6387114662        1.6112974401       18.6961480539
  C         6.8939919938        2.3064896961       19.5829187713
  H        10.7808173702        1.2369422574       19.8894818740
  H        10.5136177208        0.9285662518       21.5878969974
  C        11.7281477676        2.6618960707       21.4043250406
  H         9.8967848789        3.5316333931       17.8170609147
  C        10.0897288575        6.3852535075       17.1818607616
  H         0.6780599039        4.7150359066       27.6348382481
  H         0.8663599815        6.3709965999       27.4372028563
  C         2.4900923404        5.3168443071       28.4460971082
  C         5.0363859094       -0.2367211411       32.6538268795
  H         6.9845497901        3.2913354248       19.0333640690
  H         6.5712207008        2.6296441428       20.5892256019
  C         5.8736295277        1.4766772262       18.9633243350
  H        11.5170485409        2.9818685109       22.4265297872
  H        11.8121166667        3.6035965731       20.8713087139
  C        13.0957943771        2.0203048693       21.1485176748
  C        10.1644024257        7.8268497560       17.0065493962
  C        10.2419446360        5.6683971082       15.8956841103
  H         2.9114811860        4.2869108538       28.3929849924
  H         3.2511699687        6.0657958369       28.1401004537
  C         1.9801646929        5.7052026786       29.7872856605
  H         5.1116445859       -1.3000877307       32.5837984356
  C         4.6307551182        0.1574382642       33.9291892030
  H         5.1393444682        0.9922847204       19.6700435383
  H         6.2740371366        0.7280815747       18.3631629397
  C         4.9794334568        2.3694252455       18.0202251517
  H        13.1781312463        1.1407241277       21.7158146467
  H        13.0830582703        1.6348833688       20.1342105216
  C        14.2549659878        2.9571811387       21.5328813821
  N         9.9422826370        8.8008390654       18.0452870219
  C        10.5294790194        8.4770857596       15.8656075698
  C        10.6417838977        6.3672769963       14.7401383986
  H        10.2580064265        4.6540146633       15.8454117550
  H         1.0387096838        5.1820821039       30.1376458927
  H         2.7005290651        5.4908721768       30.5390041023
  H         1.5951283023        6.7141632758       29.9634390922
  S         4.4338548255        1.7703646846       34.5460703645
  C         4.4177670246       -0.8226750263       34.9953025836
  H         4.7219810843        3.3130036455       18.5868255893
  H         5.5563294776        2.6580977877       17.1226144593
  C         3.7874354505        1.5240631755       17.7847271629
  H        14.0286188500        4.0301122273       21.5084036632
  H        15.2390678170        2.7923879033       21.0023490662
  C        14.5875758909        2.7827792074       23.0447824179
  S        10.3766525837       10.2472442221       17.5695330047
  N        10.6485715440        9.8165575163       15.9953457880
  C        10.7306974091        7.8153790608       14.6241798700
  H        10.6502571747        5.7261080398       13.8507323298
  C         4.0752938693        1.1240055545       36.1216918203
  N         3.9963106624       -0.2177256140       36.1160034235
  O         4.6429173489       -2.0215069806       34.9343141813
  H         3.2114213656        2.0114027039       16.9697093562
  H         3.1889024279        1.6562307827       18.6485729178
  C         3.9899268970        0.0295437942       17.3653743983
  H        15.1143648633        3.6634872612       23.3697071933
  H        13.7427144834        2.6277607291       23.6164354932
  C        15.5165391507        1.6084318772       23.2558348073
  C        11.0503971493        8.5481114581       13.4955402941
  S         3.4002074898        2.0772741079       37.3948002289
  C         3.8815224252       -0.8142456333       37.4324560141
  H         4.7553047279       -0.1074870434       16.6265296156
  H         4.2728617628       -0.5447601943       18.2557849838
  C         2.6941775974       -0.5058751541       16.8506897455
  H        15.5894726177        1.0170770544       22.3282238196
  H        15.0149987671        0.9525711528       24.0194064561
  C        16.9719740614        1.8482002913       23.6141782941
  H        10.9237604689        9.5962566564       13.5386397415
  C        11.6589452231        8.2575716036       12.2958740256
  H         3.0776786622       -0.3270980636       38.0394041533
  H         3.4964201468       -1.8242910215       37.4649555331
  C         5.2487932923       -0.7949773012       38.1312397823
  H         2.8391347959       -1.3858424124       16.2576819637
  H         2.1260630355        0.1410550324       16.2472756131
  C         1.6725074970       -0.9158583847       17.9537007904
  H        17.1414763450        2.3931476066       24.4975324621
  H        17.4224074044        0.8808707216       23.6576729558
  C        17.6401352967        2.4721597214       22.3970377962
  S        11.9798965043        6.7042319355       11.8338218341
  C        11.7701229805        9.3101225913       11.2366003006
  H         5.7936547947       -0.0313668965       37.6997677750
  H         5.1333199835       -0.4983002627       39.2252256013
  H         5.8447403036       -1.7041090277       38.0123474143
  H         1.5584639698       -0.1888190473       18.8164760167
  H         1.9530525391       -1.8718881062       18.3597706466
  H         0.6796128182       -0.9033073297       17.4921490723
  H        17.1922391467        2.0051250460       21.5093436656
  H        18.7529022977        2.4216368586       22.2628317829
  H        17.3201417559        3.5076302218       22.3743914787
  C        12.2431721533        7.3801072209       10.2013328191
  N        12.1201593971        8.7158209440       10.1071275706
  O        11.6885960390       10.5195522518       11.4294605323
  S        12.3475897988        6.5615992014        8.6155897840
  C        12.2131072657        9.5228175474        8.8955732957
  H        12.4716075513       10.6060906562        9.0986273839
  H        13.0405973426        9.1957427305        8.2967530894
  C        10.8884967686        9.5371055921        8.1103012723
  H        10.9485151469        8.8145407513        7.3193161133
  H         9.9682211618        9.2079284221        8.7127223334
  H        10.7839759453       10.5506434738        7.7573653993
  H        22.9377470389       11.8297881376        4.2611885127
  C        22.3710140868       11.0611032780        3.7120122657
  H        21.3750591684       11.4404125855        3.5081305947
  C        22.3192726948        9.8068478578        4.5978434090
  C        23.0546040523       10.6874736034        2.4898848808
  C        21.8031342035       10.1458915195        6.0268192290
  H        21.6665722799        9.0230411945        4.1213821856
  H        23.3369755905        9.4197025225        4.6933080320
  H        23.9798610302       11.2984112415        2.4748430257
  H        22.5138752636       10.6858510617        1.5585665911
  H        23.3546464105        9.6418551489        2.4209462943
  C        21.0270572787        9.0198342046        6.6925371763
  H        22.6160030026       10.3385431198        6.7770796063
  H        21.1610070311       10.9810526596        5.9536872112
  C        20.4616018368        9.4977685456        8.0913206864
  H        21.8213294287        8.1888836002        6.7445287696
  H        20.1403615855        8.6958155268        6.1454740021
  C        19.2206033353       10.4096327194        8.0073912754
  H        21.2166136945       10.0163360487        8.6340747000
  H        20.2479470463        8.6540326901        8.7540681472
  C        17.9807764975        9.7883316237        7.3427628493
  H        19.1160715324       10.5683464353        9.0536802020
  H        19.3898545761       11.3482983317        7.5255881090
  C        16.8087764487       10.7893241031        7.0603829318
  H        17.5791181196        8.9210019155        7.8450489064
  H        18.1833553383        9.3250596048        6.3941243604
  C        17.0256772353       12.0897159048        6.3209884696
  C        16.3104244013       11.5457546189        8.2520879793
  C        15.5973198645       10.0401625602        6.4299126771
  C        16.8989896021       13.2452363992        7.0900909724
  C        17.5173976950       12.4086610245        5.0218364508
  C        16.2644304818       12.9279233069        8.2577254435
  C        15.7977520521       10.8890681721        9.3482332316
  H        16.0343673386        9.4677556447        5.6129307548
  H        15.2038082147        9.3654486412        7.1144438813
  C        14.3177647160       10.9504590660        5.9999255397
  S        17.3071810861       14.6816530715        6.3080040342
  C        17.6134596123       13.7637220459        4.8398346997
  H        17.8098039142       11.6122913410        4.2930858693
  C        15.7711525056       13.5108048679        9.3451743929
  H        15.7185233196        9.8303889736        9.3078741352
  C        15.3140313235       11.4844322702       10.4433750893
  H        14.5834819856       11.9471156224        5.8800054578
  H        13.6188615186       11.0693909153        6.8571149183
  C        13.4764036961       10.5184940292        4.7628670264
  C        18.0510502684       14.4914855112        3.5863450336
  C        15.2554564020       12.8424328504       10.5043178368
  H        15.5793928368       14.6026194536        9.4237369714
  C        14.9131076823       11.1279388672       11.6702937926
  H        12.5394159147       11.0000070028        4.6327428816
  H        13.2059256051        9.5159333561        5.0359874012
  C        14.3106064765       10.4703107212        3.4704067254
  C        18.0836179398       15.8958761975        3.3645513311
  C        18.5319675439       13.6550670939        2.4726911049
  C        14.8084141960       13.6114675406       11.7014548512
  C        14.5505102208       12.3072292285       12.4052665351
  S        14.7443110441        9.6325619530       12.5417543556
  H        15.0361976903        9.7312713257        3.5375865388
  H        14.7865740681       11.4377533714        3.3633276911
  C        13.4041736835       10.2025468500        2.1947487183
  N        17.6642895989       16.9125198893        4.2733176223
  C        18.4305912453       16.4283242198        2.1444289798
  C        18.9376970589       14.2348143229        1.2539768541
  H        18.6369526106       12.5910623990        2.6322517078
  C        13.5548026088       14.4293033835       11.6071403768
  C        15.9852702263       14.4573534656       12.2140782038
  C        14.2681438268       11.8868478429       13.7094593027
  C        14.3009436443       10.5025043348       13.8918888619
  H        12.6890851786        9.4047457057        2.4898136020
  H        12.8126755640       11.0050629642        1.9778690735
  C        14.2939811883        9.6790217996        1.0471995406
  S        17.7452469168       18.4099248806        3.4936977630
  N        18.2637046770       17.8267614033        2.0527169654
  C        18.7409838724       15.6840409007        1.0120130028
  H        19.4014839224       13.5842299583        0.5383834408
  H        13.4915687937       15.0507107395       10.6933453265
  H        13.4273464923       15.1733957489       12.3586835700
  C        12.3125334489       13.4892292661       11.4223073309
  H        16.2058516224       15.3130639669       11.5815905954
  H        15.6578652261       14.7645021896       13.1751234421
  C        17.2028185137       13.6655191005       12.5615058531
  H        14.0795970879       12.6537397168       14.4410381516
  C        14.1243477380        9.7998482412       15.2390814642
  H        14.2364287317        8.5508666473        0.9782455425
  H        15.3223916598        9.9667518089        1.2737897810
  C        13.7740373228       10.2224644494       -0.2745809090
  C        19.0870278010       16.3665972350       -0.1948922443
  H        12.4896243731       12.8519073310       10.5728942191
  H        12.0126697569       12.8188466934       12.2338874871
  C        11.0899708857       14.3542415491       11.0872138456
  H        17.5141004668       13.2499660349       11.5543096263
  H        16.9797216090       12.7814712595       13.1953948176
  C        18.3282210241       14.3170033371       13.2074165574
  C        14.0855112220        8.3836153721       15.4059140004
  C        13.8678949671       10.6397880047       16.4481474676
  H        13.6743481223       11.2920336713       -0.2095496501
  H        14.6099206404       10.0501670445       -0.9727376953
  C        12.5491306694        9.5493528380       -0.9050034890
  H        19.0313376047       17.4615980251       -0.1798458806
  C        19.4835667843       15.9679079821       -1.4650251144
  H        11.2339400052       15.0504552723       10.2599176015
  H        10.6304570904       14.8494756990       11.8825574481
  C        10.0466177983       13.3748237615       10.6500112405
  H        18.8827136746       14.9461330996       12.5678539315
  H        18.0428167274       14.9830676126       14.0847853256
  C        19.3546655516       13.3791789826       13.8007217540
  N        14.4305069304        7.3716451206       14.5015620755
  C        13.7056759967        7.8707317297       16.6310344194
  C        13.5367461102       10.0983869754       17.6428418411
  H        13.8996858525       11.7223481240       16.5246352227
  H        12.4023103206        9.7666011809       -1.8977427260
  H        11.6713144288        9.6682215052       -0.3097311952
  H        12.7209177347        8.5090988451       -0.9963756914
  S        19.6310834788       14.3259779691       -2.0114519461
  C        19.5806910762       17.0618079154       -2.5261880778
  H        10.4307221560       12.5137982023       10.1234609039
  H         9.5367887099       12.9696242617       11.5568646938
  C         9.1047625266       14.0550634420        9.6289319938
  H        19.4444418898       12.5787746651       13.1026863410
  H        18.9801062978       12.9210644532       14.7178458851
  C        20.7215570769       14.0544858409       13.8109140332
  S        14.1840366447        5.9231515870       15.1430470727
  N        13.6591985086        6.4504501016       16.6191177664
  C        13.3620972559        8.6299960514       17.8037599309
  H        13.4969572326       10.7922905681       18.4992047937
  C        19.9383580193       15.1144222333       -3.5880600634
  N        19.9231373473       16.5129497895       -3.6738524863
  O        19.5858174309       18.2087041963       -2.2911823052
  H         8.6710450386       14.9148409027       10.0474448012
  H         9.6899532736       14.4030294064        8.7695963715
  C         7.9591646067       13.1758326560        9.1450846224
  H        21.4384825450       13.2651437627       13.9159840956
  H        20.9414911237       14.7172309336       13.0115811245
  C        20.9371648146       14.9163169536       15.0422305775
  C        13.2073639096        7.8778527555       18.9915661596
  S        20.1091988726       14.3063747495       -5.1610262681
  C        19.8517781688       17.2500408296       -4.9822385403
  H         8.3415875105       12.6351255244        8.2989184621
  H         7.5818538875       12.3103684042        9.7375848918
  C         6.8516575257       14.0417357851        8.5893824061
  H        21.2248026709       14.3536465143       15.9347564260
  H        19.9771988179       15.2925007884       15.3449239372
  C        21.9798659915       16.0102314088       14.8132038407
  H        13.4545858810        6.8881517038       18.9744968963
  C        12.7266284137        8.2922453881       20.1984987653
  H        20.5753946715       16.8297560874       -5.8081369432
  H        20.1914255696       18.2817050365       -4.9619820017
  C        18.3775266795       17.1319631823       -5.5013531170
  H         6.6644553727       13.5586592512        7.6018875659
  H         7.1724995681       15.0634366482        8.3973727546
  C         5.5195549520       14.0513775337        9.4447158469
  H        22.8382927952       15.4980744513       14.3434951086
  H        21.6793213483       16.5882568041       13.9378454038
  C        22.2701897010       16.9353879768       15.9822267174
  S        12.2683019346        9.7810094319       20.7022619949
  C        12.6641993704        7.1842020325       21.2132623967
  H        17.8514171101       16.6842601403       -4.7139329517
  H        18.2468314885       16.4105831108       -6.2853735690
  H        17.9677185827       18.1148392158       -5.7091856950
  H         5.6760810434       14.4530777678       10.4328270082
  H         4.7823295989       14.7282820911        8.9402083411
  H         5.0435880795       13.0664642823        9.6591856151
  H        21.8307844305       16.6339622640       16.8591361069
  H        23.3504462821       17.0235056093       16.1096057657
  H        21.8406773309       17.9330066749       15.7975935573
  C        11.9225518309        9.0171490262       22.2185505594
  N        12.0078351402        7.6799405386       22.3005092101
  O        12.9565994968        6.0331018547       21.0171688553
  S        11.3620048880        9.9523001694       23.5989586678
  C        11.7960837214        6.8446587469       23.4846496620
  H        11.5912493128        5.7955323150       23.1502438307
  H        11.0329099045        7.2312454825       24.1343875344
  C        13.0690242198        6.8533491641       24.4015574050
  H        13.9773751866        6.7485315440       23.8227014609
  H        12.9324318108        6.0665484968       25.0861729642
  H        13.0276708333        7.8104419960       24.8885788839
