352
 i =    70500, time =    70500.000, E =        25.1721633933
  H        12.0658126146        5.0270458835       31.9085766909
  C        11.1660413832        5.5923183107       31.6935900028
  H        10.4812653473        4.7618566691       31.3113109330
  C        11.5460993669        6.4905571409       30.5302353859
  C        10.6165109448        6.3445668596       32.8345096306
  C        12.2815890128        5.7612285854       29.3809072227
  H        10.6680012376        7.0273415447       30.1552968270
  H        12.3260126272        7.2441308684       30.8568000012
  H        11.1756090586        7.2579239014       32.9530381763
  H         9.5414887820        6.3326165589       32.6639772935
  H        10.6562497343        5.9137882398       33.8599707131
  C        11.2489185961        5.0281605395       28.5207583522
  H        13.0361838739        5.1040188793       29.7674894105
  H        12.7367079664        6.4301349113       28.6786088188
  C        10.4954127160        5.8030642136       27.4447046753
  H        11.8036109097        4.2722286491       27.9018917590
  H        10.5489593150        4.4851725980       29.2099895277
  C         9.7353038703        4.9275992878       26.4541751057
  H        11.3408583202        6.2602892735       26.8954538732
  H         9.8525256066        6.4947512703       27.9406450164
  C         8.5945830016        5.7187030003       25.8087786877
  H        10.4112828533        4.4687229799       25.6834808183
  H         9.3106696482        4.1178063482       26.9675590162
  C         7.5641357131        4.8564976985       25.0842764514
  H         7.8987510654        6.2934442192       26.4802338006
  H         9.0596533405        6.4823983866       25.2770236536
  C         7.2888161845        3.4928587101       25.8393796044
  C         8.0940024061        4.1396516484       23.9248659406
  C         6.2310840738        5.5602621198       24.7040929437
  C         7.5601850022        2.3866649530       25.0396281592
  C         6.7803596958        3.0835148859       27.0552675609
  C         8.0795605567        2.8140487670       23.8318398934
  C         8.6087301266        4.8599720414       22.8313659774
  H         5.7641224806        4.8623062428       23.9970750526
  H         6.5010849156        6.3432696640       24.0161347533
  C         5.2758196257        6.0103047787       25.7803775791
  S         7.1084991365        0.8307249428       25.8047002214
  C         6.6447992407        1.7583350835       27.1865466958
  H         6.4186412531        3.8150936194       27.7045726082
  C         8.4081392783        2.2175704739       22.6947350202
  H         8.5597987864        5.9285346964       22.6766014903
  C         8.9225906609        4.2174748677       21.6515748834
  H         5.2562942837        5.2640820560       26.5721802202
  H         5.4861326782        7.0373252383       26.2167527010
  C         3.8555273383        6.2308705893       25.1126470053
  C         6.1411190888        1.0956787924       28.4080125113
  C         8.8556092808        2.8519300409       21.5598252738
  H         8.4395625342        1.1393650916       22.7771508478
  C         9.2298501862        4.5961337176       20.3408121811
  H         3.6283015417        5.4663643104       24.3852010190
  H         3.8071177931        7.0305197182       24.4057485733
  C         2.7463002105        6.3044264292       26.1947875566
  C         6.0513937362       -0.3091169247       28.6065594207
  C         5.7124167373        1.9066067819       29.5382012602
  C         9.2776849515        2.1487792593       20.3060096214
  C         9.4900461866        3.4983804081       19.5027329144
  S         9.4967923422        6.0861339134       19.5796997376
  H         1.7854007101        6.6031603535       25.7001383412
  H         3.1875748419        7.1150938204       26.8704919160
  C         2.4089937712        4.9761947791       26.7914289432
  N         6.3650987078       -1.3295096675       27.7031078358
  C         5.6033333922       -0.8484678213       29.8074882087
  C         5.2471349561        1.3423284891       30.6896328552
  H         5.7398250968        2.9882148874       29.4253159117
  C         8.0712277367        1.3673287118       19.7942154678
  C        10.4757101569        1.2206915935       20.6069648555
  C         9.8441396184        3.8457087429       18.2184846302
  C         9.8082598255        5.1946319523       18.0455497785
  H         1.3085155200        4.8387783382       26.5846847868
  H         3.0630817783        4.1058687756       26.3863604425
  C         2.3844443657        5.0159614067       28.2498035317
  S         6.3913743915       -2.7760875360       28.4470155970
  N         5.7597333539       -2.2190778434       29.8355086461
  C         5.2937429401       -0.0884295739       30.9701279582
  H         5.0074442224        2.0154827901       31.4906173047
  H         7.6290813649        0.7806198754       20.5787116721
  H         8.3287963905        0.8392766685       18.8635112507
  C         6.9996777358        2.4472564734       19.1871499359
  H        10.7989956848        0.7880689380       19.6680713587
  H        10.3407875924        0.5401423811       21.3781450619
  C        11.7338615336        1.9456931594       20.9850386952
  H        10.0468299218        3.0041689020       17.5527521985
  C        10.1510763427        5.9584332873       16.7868661267
  H         1.7924095088        4.1262476512       28.5808432768
  H         1.7785417755        5.9277578594       28.5111141949
  C         3.7753929814        4.8355047299       28.9685833017
  C         5.0849630584       -0.7535832513       32.2395176159
  H         7.3976609446        2.8182477033       18.2232171471
  H         6.8383082902        3.3013544239       19.8891542805
  C         5.6439227187        1.7524964783       18.8238515503
  H        11.5917350181        2.3622130698       21.9388201763
  H        11.8953709485        2.7277354209       20.2876068709
  C        12.9890042640        1.1209693165       21.1907155987
  C        10.3568182172        7.3563416174       16.6683753947
  C        10.3575315600        5.2320149337       15.5330114609
  H         4.1897683264        4.0170189062       28.4834644292
  H         4.4784433106        5.6532133614       28.7601818071
  C         3.5710441396        4.6864723053       30.5200366683
  H         5.2125820463       -1.8551496666       32.2044569923
  C         4.8934119079       -0.3319609869       33.5382902299
  H         4.9316291480        2.5117563467       18.6830015781
  H         5.2712419628        1.1214333997       19.6716021481
  C         5.7184261227        0.8822408172       17.5095601487
  H        12.8874685474        0.4355417775       22.0322688883
  H        13.3714647429        0.6542104008       20.3646321553
  C        14.1291979237        2.1004924994       21.4830032387
  N         9.9381727185        8.2963849564       17.6084105677
  C        10.7474913724        7.9602205720       15.5145125857
  C        10.6603440062        5.8470387659       14.3120807592
  H        10.1660349457        4.2317889851       15.5905855318
  H         2.7312120032        4.2057346117       30.7081872755
  H         4.4304190885        4.2027090329       31.0611843938
  H         3.2761452090        5.6262837007       30.9586515118
  S         4.7331440079        1.3050636122       33.9922077992
  C         4.8697591488       -1.3460965115       34.6588466744
  H         6.2854764064        1.4652144913       16.7592100504
  H         6.2345469292       -0.0476139539       17.6510760359
  C         4.3426577862        0.7671887343       16.8451992511
  H        13.5895280859        2.8749926730       22.0323202521
  H        14.5390227483        2.4735282556       20.5546310001
  C        15.1995140773        1.4350985411       22.2838511205
  S        10.2420468281        9.8326648047       17.0246916537
  N        10.8714210812        9.3386768011       15.5992105214
  C        10.8804974849        7.3451450611       14.2377860079
  H        10.6928485306        5.2500245275       13.4188759990
  C         4.5695232939        0.6327489996       35.6148989539
  N         4.6429947045       -0.7000925206       35.7750699868
  O         4.9839957996       -2.5131167919       34.4900629789
  H         4.4023224211        0.2056897113       15.9365698096
  H         4.1356073081        1.8035801470       16.5732075451
  C         3.0922556780        0.2901930461       17.6588489557
  H        14.8732686769        0.6110246296       22.9035331862
  H        15.9925414209        1.0575090031       21.6486141817
  C        15.9815299707        2.4915198660       23.0100263897
  C        11.2669614854        8.0603293592       13.1437480763
  S         4.2057006838        1.6024622899       37.0882206862
  C         4.7462949095       -1.3395433316       37.0676784954
  H         3.2170562595        0.8167003171       18.5932836864
  H         2.1834341608        0.6156018038       17.1318889585
  C         3.1191847056       -1.2248024405       18.0716250199
  H        15.4869523507        2.9778128698       23.9031259397
  H        16.0914790628        3.3285634724       22.3610477753
  C        17.3117314446        1.8706448198       23.4116262023
  H        11.1300410249        9.0837807172       13.2020246024
  C        11.9054309363        7.7224121984       11.9493298881
  H         4.3199597195       -0.8554781851       37.9192811114
  H         4.1922915286       -2.2275329272       37.0311768663
  C         6.1764658254       -1.6371713893       37.4844466568
  H         2.3937018937       -1.3401800067       18.9449580820
  H         4.0794550772       -1.5811534735       18.4802208583
  C         2.6482802144       -2.1698637807       16.9466220059
  H        17.7341733627        2.3474509080       24.3354783985
  H        17.0664697813        0.8555566199       23.8009619587
  C        18.4494627155        1.8731417282       22.3880533840
  S        12.5124784429        6.2041477140       11.5382692184
  C        12.1452554927        8.8335222361       10.9772224055
  H         6.8049274769       -1.6996658420       36.6271614332
  H         6.3944172336       -0.9640789887       38.2733759134
  H         6.1258958820       -2.5775560572       37.9795063423
  H         1.7325908492       -1.8088442405       16.5159761229
  H         2.4307506654       -3.1128433635       17.3868890120
  H         3.3125259969       -2.3710626188       16.0705051983
  H        18.5290581852        2.8582021162       21.8207958617
  H        18.2995802320        0.9943037290       21.6569382451
  H        19.3971403201        1.6874325289       22.9179208127
  C        12.8943537433        7.0174107774        9.9397206218
  N        12.7068756801        8.3576489613        9.8690066339
  O        11.8103565220       10.0083056130       11.1368527020
  S        13.1667105752        6.2623261873        8.3388983354
  C        12.9314239780        9.1507871303        8.6209431720
  H        13.0275498861       10.1667682205        8.9771183443
  H        13.8725094339        8.8299157922        8.1679762575
  C        11.6411365303        9.1441718926        7.7140901890
  H        11.5403259098        8.2112514854        7.0193005028
  H        10.8573241794        9.1801144508        8.3794069353
  H        11.5846026530        9.9601037813        7.0883611348
  H        21.5402464063        9.1934257861        3.0188084462
  C        22.3898798010        9.8779875544        2.8354611075
  H        23.2057522302        9.3170640648        2.4170594525
  C        23.0775636058       10.3623546832        4.1318706870
  C        22.0900996765       10.9848406876        1.8274439240
  C        22.0958114649       10.5924086189        5.3422846245
  H        23.6808487462        9.5718721688        4.5579335396
  H        23.7816212931       11.1868764302        3.9392511417
  H        22.9508612207       11.6622291607        1.8291352721
  H        21.1665796351       11.4493578603        2.1430122201
  H        21.8622816994       10.5532015461        0.7725349965
  C        21.3403352485        9.2796084388        5.7295501481
  H        22.6262725311       10.9789888297        6.2043601632
  H        21.3832316736       11.3668143022        5.0680761414
  C        20.8340150655        9.2567755511        7.1776154720
  H        22.0874767713        8.4749580987        5.5832341613
  H        20.4567457447        9.1815736749        5.0166855106
  C        19.6328540742       10.1643923684        7.3860727167
  H        21.5891664083        9.5892347644        7.8980356253
  H        20.4948369363        8.2061609424        7.4830390882
  C        18.3222636935        9.5541049621        6.9500783625
  H        19.7118516328       10.3731160370        8.4328117339
  H        19.7934070165       11.0966682515        6.8854248582
  C        17.1435567513       10.4473700309        6.6425386452
  H        17.9991575025        8.7746305825        7.6039829076
  H        18.6949933019        9.1492038351        5.9744065109
  C        17.4497201333       11.7729288880        6.0242434123
  C        16.6647344591       11.0370797390        7.9056427346
  C        15.9370771628        9.8397139460        5.7893144699
  C        17.0357157714       12.8341062945        6.8624024520
  C        17.9680135021       12.2000073266        4.8464127018
  C        16.6424070420       12.3701096689        8.0815795733
  C        16.1105259379       10.3219869613        8.9843450800
  H        16.3253798470        9.4300741761        4.8528797209
  H        15.6143949440        8.9968611845        6.3241466984
  C        14.7654784828       10.7865527136        5.5735755752
  S        17.0102529263       14.3875835908        5.9757529630
  C        17.7658329628       13.5434204954        4.6474971495
  H        18.2442535702       11.4751215033        4.1214465914
  C        16.1308124890       12.9700697113        9.2355527731
  H        16.1189876937        9.2591099735        8.7502295981
  C        15.7434012630       10.8523648387       10.1926162154
  H        14.9657380367       11.7635992248        5.1599978525
  H        14.3082897676       10.9600584812        6.5966129411
  C        13.7067518206       10.1636113503        4.6935231524
  C        18.1760477061       14.2207130393        3.3707151491
  C        15.7773490156       12.2327284561       10.3495092893
  H        15.9199475213       14.0048406742        9.3275360554
  C        15.2779180778       10.4874614752       11.4428109966
  H        12.9970160683       10.9689380599        4.4866483225
  H        13.2165177024        9.3811849301        5.2963711081
  C        14.1800226198        9.7740704287        3.3456340477
  C        18.1851113356       15.5861382752        3.1503472480
  C        18.6174239296       13.4579804831        2.2286478592
  C        15.3454488712       12.9639389857       11.6209819548
  C        15.1195609369       11.5714832292       12.3016683383
  S        15.0492225522        8.9572953473       12.2827155327
  H        14.7030289747        8.9384538766        3.4717131491
  H        14.9168385038       10.4859601404        3.1154633705
  C        13.0847054177        9.6449452423        2.2531835095
  N        18.0426860146       16.5540224877        4.1905598642
  C        18.4313348029       16.1856610172        1.9594506524
  C        18.7446989746       14.0120843074        1.0016473361
  H        18.9683409073       12.4054724785        2.2299640225
  C        14.0061113955       13.7642391088       11.4594899833
  C        16.2987414775       13.8033907571       12.4312900608
  C        14.6767553618       11.1958344607       13.5503852128
  C        14.5836599829        9.8100950276       13.7015164758
  H        12.3540954111        9.0201861620        2.6742316832
  H        12.5731571048       10.6511826825        2.2361035773
  C        13.5807455251        9.1794033068        0.8944953853
  S        18.1029174822       18.0342559314        3.4883113673
  N        18.4046825628       17.6372488306        1.9765116235
  C        18.6511107415       15.4217491940        0.7986945761
  H        19.2077023570       13.4416651765        0.1830184655
  H        14.0740287681       14.6381224488       10.7695650489
  H        13.6213434132       14.2612883118       12.3789014521
  C        12.8450100149       12.9196829782       10.9504839066
  H        16.3286572191       14.7899582260       11.9650099074
  H        15.9922741223       13.8673677345       13.4668317742
  C        17.6767372552       13.2343883311       12.5826555101
  H        14.4969437953       11.9958154954       14.2574341943
  C        14.2508043443        9.0929268746       15.0364186146
  H        12.9948169999        8.2860645980        0.6031594215
  H        14.5615403011        8.7962580261        1.0540941772
  C        13.7342330858       10.2744901927       -0.1568030789
  C        18.9530985291       16.0666186858       -0.4937636306
  H        13.1520423513       12.2756227629       10.1338115622
  H        12.5991804408       12.2619703136       11.8437691757
  C        11.5788816339       13.6968778556       10.6684481235
  H        18.1493548474       13.0166423710       11.6213224677
  H        17.4751709824       12.3663253685       13.2427760702
  C        18.6569512887       14.1298038872       13.3849903966
  C        14.2011004481        7.6761662944       15.2100403120
  C        14.1504774513        9.9142856858       16.3049713899
  H        13.8915737987       11.2661226608        0.1678112344
  H        14.6017885342        9.9376560018       -0.7048678992
  C        12.5333704568       10.3842870503       -1.0360981313
  H        18.8316681341       17.1625214677       -0.4617906986
  C        19.3982718889       15.6816194046       -1.7597962187
  H        11.8304744641       14.6095249428       10.1225300809
  H        11.0565728643       14.0665436614       11.5459642842
  C        10.5602366475       12.8843637575        9.8882614711
  H        19.2402757599       14.7253613212       12.6502471886
  H        18.1528514986       14.7454921378       14.1296120475
  C        19.5934843884       13.3038840945       14.1551618075
  N        14.5437583791        6.7228267243       14.1978795801
  C        13.9542031165        7.0793874169       16.4047042998
  C        13.8458821648        9.2518255269       17.4613933170
  H        14.1979250178       11.0400450051       16.1965838401
  H        12.9157986700       10.6998739306       -2.0346321516
  H        11.8187435525       11.0948304747       -0.6185792839
  H        12.0660760960        9.4172625210       -1.2794306439
  S        19.8997085946       14.0556476855       -2.2445980299
  C        19.4704777043       16.7614323142       -2.7878207686
  H        11.0322506292       12.2260190132        9.1391230594
  H        10.1788338779       12.2153024961       10.6991483992
  C         9.4384215229       13.7313711779        9.2082320618
  H        19.8620451110       12.4447656175       13.5578737623
  H        19.0914991219       12.8897845095       15.0185540619
  C        20.8795102182       13.9156232935       14.7251146833
  S        14.4043262051        5.2439482674       14.8714412508
  N        13.8217245333        5.7270022762       16.2712610295
  C        13.8212816357        7.7586216759       17.5992901094
  H        13.6221715567        9.9324024457       18.2921507831
  C        20.0920680349       14.8471328218       -3.8567330684
  N        19.9241018834       16.2227537106       -3.9536422895
  O        19.0370333550       17.9298616446       -2.6191311626
  H         9.1031223739       14.5568340914        9.8905789355
  H         9.8976029233       14.2049610744        8.3099267749
  C         8.2265975439       12.9663800625        8.7635367984
  H        20.5613478639       14.8020437661       15.2215971649
  H        21.2829322379       13.2364471367       15.4431832445
  C        21.8918932731       14.1491784812       13.6181117082
  C        13.4780855117        7.0443301707       18.7906642169
  S        20.5056087870       13.9013017787       -5.2995199972
  C        20.1325496619       16.9817061666       -5.1497105921
  H         8.2823095640       12.5757640472        7.6896735545
  H         8.0356094112       12.0925396573        9.3063931246
  C         6.9604597919       13.8753751520        8.8375351308
  H        21.4647156064       14.3258609440       12.6786868714
  H        22.6972247865       13.3741095521       13.5600295920
  C        22.5613678398       15.4150637628       14.0328604738
  H        13.7569151095        5.9901365061       18.7189242313
  C        12.9114344147        7.4936020347       19.9898035491
  H        20.5815764345       16.4048566639       -5.9396014131
  H        20.7691842476       17.8248777642       -4.9493892837
  C        18.8160925257       17.5094308546       -5.6585855127
  H         6.0973975071       13.3437522796        8.4354542304
  H         7.0419706428       14.7714750466        8.2679617883
  C         6.4210048319       14.0096093436       10.2887205505
  H        22.6722838618       15.3666277124       15.1573050412
  H        23.5633873579       15.5298551430       13.6384271872
  C        21.7221173821       16.6195344736       13.4802173830
  S        12.3681941859        9.0622922729       20.4499612961
  C        12.7276437917        6.4110504123       21.0141810211
  H        18.0984510957       17.9236827108       -4.8998144854
  H        18.2775450948       16.7879919277       -6.2833278327
  H        19.0224485361       18.3283918354       -6.3831767660
  H         6.5244232786       13.1407710822       10.8961837200
  H         6.7855936985       14.8026075826       10.9258231560
  H         5.3190841752       14.1204501221       10.2969274911
  H        22.1589826662       16.9641689866       12.5363732667
  H        20.7265738885       16.1872156307       13.2813347104
  H        21.6374300422       17.4337554825       14.1743325834
  C        12.0836628784        8.3363329706       22.0247070758
  N        12.2346215367        7.0137661361       22.0968054054
  O        13.0920485516        5.2714220257       20.9025110941
  S        11.2808063310        9.1876147579       23.3502723394
  C        12.0669933136        6.1481706660       23.2142649437
  H        11.7332964610        5.0968391054       22.9470991158
  H        11.3224281369        6.5057898515       23.8659140158
  C        13.3486241467        6.0968407119       24.0410390249
  H        14.2179146846        5.7766967393       23.5017918134
  H        13.2182690627        5.3624987639       24.8844859776
  H        13.5156553783        7.0169725842       24.5257021110
