352
 i =    80900, time =    80900.000, E =        25.5467463192
  H        10.6459155350        7.1275643997       31.7108807895
  C        11.6822586378        6.8227647100       31.8824626519
  H        12.3314045635        7.6661833065       32.0951998163
  C        12.0025837586        6.2190950145       30.5517842340
  C        11.5756937856        5.8170764041       33.0541579039
  C        11.0370126567        5.2828288320       29.8900047423
  H        12.3891382905        6.9760601787       29.8532158136
  H        12.9573973091        5.6690566817       30.7221678013
  H        11.2429748213        6.1838636867       34.0438083911
  H        10.8750328418        5.0411987074       32.8988197738
  H        12.5336425217        5.3245256417       33.1591571564
  C        10.2260998449        6.1504050038       28.9439068270
  H        10.2449506191        4.8801838587       30.5362007748
  H        11.5290220848        4.4462666243       29.3941348073
  C        10.6602877606        6.1113896365       27.5021534070
  H         9.1825315487        5.7695933779       29.0039199423
  H        10.0888806436        7.1815672346       29.2723158146
  C         9.8682190837        5.2188308202       26.5286963262
  H        11.6258950321        5.5354951803       27.5920259057
  H        10.9280444265        7.0018668158       27.0009579974
  C         8.6453813352        6.0270726507       26.0664882762
  H        10.4622779097        5.0284123253       25.6727950782
  H         9.5732260088        4.3357736782       26.9544704275
  C         7.5845725318        5.1913073089       25.3125130476
  H         8.2130845710        6.5340559583       26.9065905290
  H         8.8302307091        6.8248360100       25.2943274234
  C         7.2675826011        3.8001791735       26.0064223417
  C         8.0032974513        4.4366279972       24.0849787531
  C         6.3332040944        6.0568452883       24.9238682058
  C         7.4447964482        2.6428321807       25.2365571652
  C         6.9280332410        3.4381293405       27.3280540866
  C         7.9162701530        3.0880841023       23.9789169008
  C         8.4444236511        5.1761772043       22.9811114401
  H         6.0540758110        5.8942241584       23.8771020991
  H         6.6268467042        7.0756995434       25.0112250677
  C         5.0759672880        5.5336602313       25.6458520687
  S         7.1408366686        1.1418266319       26.0958999658
  C         6.6857703189        2.0706089662       27.4522181017
  H         6.7955779732        4.1482644329       28.1368275623
  C         8.3232136954        2.4945097372       22.8140153690
  H         8.3334873180        6.2164666883       22.9554504453
  C         8.8429645303        4.5305976945       21.8411263812
  H         4.8179330020        4.5084320618       25.4040618386
  H         5.2321067999        5.6621404445       26.7299144351
  C         3.7685627807        6.2575180175       25.2400578184
  C         6.0728065214        1.4414825797       28.7026031168
  C         8.7834490863        3.2066230740       21.7062976372
  H         8.3563052694        1.4508499800       22.7576429876
  C         9.2919873548        4.8790435466       20.5528461966
  H         3.2588526487        5.5403964452       24.7461521732
  H         3.9295107069        7.0334439094       24.4384438971
  C         3.0584479397        6.7362632347       26.4670490878
  C         6.1465941907        0.0695290159       29.0063174428
  C         5.5623319503        2.2894269713       29.7974675344
  C         9.0463481861        2.4265880605       20.4322714089
  C         9.4308921418        3.7234939732       19.7267022047
  S         9.5672997127        6.3443414577       19.7411896347
  H         2.1329177250        7.3287335495       26.0913817336
  H         3.6357213287        7.3981074602       27.1063507164
  C         2.5536856717        5.5822106712       27.3467502667
  N         6.5412539779       -0.9096861188       28.1086591107
  C         5.8598229861       -0.4872716581       30.2564984401
  C         5.1947359053        1.7710746329       31.1038539169
  H         5.5419145060        3.3421422386       29.5925821092
  C         7.8255249237        1.7997646233       19.7306741094
  C        10.2614953070        1.4610491861       20.4184421809
  C         9.8639786166        4.0886060671       18.4293739138
  C         9.9449537178        5.4632471245       18.2610109647
  H         2.9421068761        4.6757184458       26.8778265612
  H         3.0826921220        5.7697066354       28.2599496150
  C         0.9467263504        5.6839435611       27.6078704923
  S         6.6707887618       -2.3551051962       28.8716685194
  N         6.0760996797       -1.8854627378       30.3002738904
  C         5.4480249799        0.3063334843       31.3988807352
  H         4.7173014052        2.4584098751       31.8079920695
  H         7.4652611377        0.8249107457       20.1624454405
  H         8.2792791599        1.5798346014       18.8182313057
  C         6.5424282339        2.7517425871       19.6653483669
  H        10.3664111790        0.8595118668       19.5005163025
  H        10.3170542724        0.7604262317       21.1730664734
  C        11.6233861647        2.1678643340       20.7164822916
  H        10.0487696629        3.3208891988       17.6948646171
  C        10.2512613261        6.1206304206       16.9351319544
  H         0.5471683589        4.9136133868       26.9184374196
  H         0.5106869786        6.6720203527       27.3039976114
  C         0.5936007171        5.2972486295       29.0623195893
  C         5.3063989020       -0.2768003562       32.6763613839
  H         6.6747474786        3.6720061098       19.0466783015
  H         6.3664540025        3.1261107934       20.6673643753
  C         5.2366282147        2.0210831866       19.2872862135
  H        11.3840324520        2.7643088252       21.5934942187
  H        12.0132480254        2.8034679421       19.9062233528
  C        12.7666017760        1.3005346750       21.1517074646
  C        10.3246526045        7.5303201325       16.7437158475
  C        10.4795394334        5.3680135271       15.6885513026
  H        -0.4288367617        4.7875217050       28.9251653671
  H         1.2985950709        4.5309994082       29.2773431192
  C         0.6365500498        6.2835718500       30.2185549351
  H         5.5580488618       -1.2815466924       32.6855071713
  C         5.0411134943        0.1942734502       33.9486033513
  H         4.3198596150        2.6287436897       19.3546780113
  H         5.1311923575        1.3567015331       20.1307460362
  C         5.1812374075        1.1383312819       18.0157058931
  H        12.5170006067        0.7187199110       22.0176440844
  H        13.1570306927        0.6783905004       20.3578414341
  C        13.8672921741        2.2196687658       21.7170354295
  N        10.1376854601        8.4913841038       17.7702805451
  C        10.6637346026        8.1517641241       15.6033613248
  C        10.7356533922        6.0050137935       14.4818669570
  H        10.3657867146        4.3183197788       15.6642835625
  H        -0.1506971529        7.0491794775       30.1651631052
  H         0.3785045884        5.8414728869       31.2157716151
  H         1.5721492181        6.7944646811       30.2671133076
  S         4.5252296250        1.8288710263       34.3182116746
  C         4.9801968106       -0.7644483395       35.0705035240
  H         5.6554709964        1.5539901655       17.2358868037
  H         5.6638258947        0.2136953987       18.4055664959
  C         3.7856853921        0.8461047881       17.6020137654
  H        13.4079499506        2.7612331355       22.5532711070
  H        14.1923434653        2.8880817722       20.8941826795
  C        14.9685351997        1.4983561103       22.4268497448
  S        10.4052537385        9.9857480247       17.1650479715
  N        10.7745254943        9.5562446653       15.6831568449
  C        10.9105710888        7.4975376473       14.3973586551
  H        10.8090285135        5.4340948775       13.5419367308
  C         4.2535722704        1.1930867762       35.9596202719
  N         4.5908081388       -0.1438089401       36.1885362725
  O         5.4382857931       -1.8814481120       34.9847224632
  H         3.6362202388        0.4364760131       16.5693010783
  H         3.3663670405        1.8736579144       17.4980600947
  C         3.1532446688       -0.1377165565       18.5413419665
  H        14.5853370142        0.8585885695       23.1656014413
  H        15.5494789708        0.9425395081       21.7218055758
  C        15.8574871641        2.5447844017       23.0812397557
  C        11.1540849807        8.2663800640       13.2154290290
  S         3.8089864382        2.1657030704       37.3102650598
  C         4.6281110291       -0.8174483417       37.4689927263
  H         3.8592665772       -0.5131288077       19.2161574593
  H         2.4361703465        0.4357061105       19.0689010606
  C         2.3160226373       -1.2648603181       17.8739181256
  H        15.3302642865        3.1976650253       23.7824935235
  H        16.2892419832        3.1438647244       22.2372217227
  C        17.0837402905        1.9072463251       23.7983375988
  H        10.6682824650        9.2620196299       13.2136055523
  C        11.6861275384        8.0003035511       12.0123229440
  H         4.1263932534       -0.2021844416       38.1605902267
  H         4.1132863007       -1.7277424608       37.4201097983
  C         6.0174147668       -1.1748734219       37.9943338006
  H         1.4660811484       -0.8605880098       17.3046106319
  H         1.9275753381       -1.8081540104       18.6995492833
  C         3.1852438638       -2.2053318372       17.0119464575
  H        17.4208239602        2.6338681644       24.5160573998
  H        16.7745337804        1.0202986510       24.4008881758
  C        18.2217098697        1.5091799925       22.8523065505
  S        12.3554348286        6.4254028463       11.4935152907
  C        11.7491312794        9.1214895595       11.0246692427
  H         6.8533914153       -0.8859552301       37.2571616518
  H         6.2695027135       -0.6585958499       38.9073559771
  H         5.9951760554       -2.2047149512       38.0036771509
  H         4.1410461298       -1.7766197743       16.6985769443
  H         2.6339846743       -2.4990994606       16.1562826151
  H         3.2310789341       -3.2118080521       17.4683424414
  H        18.5656008901        2.3989520054       22.2492538585
  H        17.9473702347        0.6807584872       22.2245103127
  H        19.0698582104        1.1662595515       23.3792076722
  C        12.6770683876        7.3269687589       10.0190467740
  N        12.4318315386        8.6744839554        9.9780793709
  O        11.4261959574       10.2296077998       11.1987985644
  S        13.4159510248        6.5416875162        8.6285391583
  C        12.6849511777        9.5418229999        8.8558232274
  H        13.0411830664       10.4782373245        9.3000151431
  H        13.4318025955        9.1228582846        8.2361120575
  C        11.4406601276        9.6991765456        7.9699608362
  H        10.8710220468       10.6089019991        8.2498783235
  H        11.8495118678        9.7868397798        6.9805305337
  H        10.7583018011        8.8604917646        8.0340112234
  H        21.5832912460       10.7779578123        3.3821838570
  C        22.1455455750        9.8360062476        3.4017205805
  H        21.3149515404        9.1446165529        3.5291782377
  C        22.9901713713        9.7450992310        4.7218420588
  C        22.9176929230        9.5555238703        2.1027227544
  C        22.1692939595        9.9193229668        5.9124200977
  H        23.5037969328        8.8104166636        4.8878143598
  H        23.7013241923       10.6071377002        4.7340864664
  H        23.6870606007       10.2537176634        1.9662421858
  H        22.2539498266        9.6791611878        1.2870251096
  H        23.2829121366        8.5702309622        2.0608866134
  C        21.4917003728        8.6171601869        6.3676683265
  H        22.8777636431       10.3297326814        6.6717156920
  H        21.4579084853       10.7354497158        5.7668558348
  C        20.3002995884        8.9068316020        7.2029822089
  H        22.2754498256        8.0398146608        6.8507715904
  H        21.1595942472        8.0517435291        5.4889488339
  C        19.1304707428        9.5970862467        6.4179132220
  H        20.6816895429        9.3932735770        8.0760083880
  H        19.9389077210        7.9203148070        7.5691843790
  C        17.9925504067        9.9629697567        7.3807364970
  H        19.5409095156       10.3933224002        5.9327210889
  H        18.6962001078        8.9011632743        5.6678782712
  C        16.8424291666       10.8532443586        6.8254632184
  H        18.3954778364       10.7053879355        8.0323977413
  H        17.6608034767        9.1162716564        7.9870191484
  C        17.2575107626       12.2002350749        6.1838897767
  C        16.3222926333       11.6246558321        7.9539469397
  C        15.7478791809       10.1627459551        6.0331534654
  C        17.0881279889       13.3718368128        6.9470764645
  C        17.7395590890       12.5761515417        4.9164956694
  C        16.4680848539       12.9656393596        8.1217585016
  C        15.8936029524       10.9123197509        9.0810263447
  H        16.2088627715        9.6519454698        5.1256975418
  H        15.3864324003        9.3765311966        6.6776021668
  C        14.6057514615       11.0906194964        5.6331161851
  S        17.6310993557       14.7864217857        6.1831752312
  C        17.9982405021       13.9110653186        4.6999530325
  H        17.8453945747       11.8498799962        4.1524062525
  C        15.9780708424       13.5495627731        9.2739114428
  H        15.7202997109        9.8850918014        8.9461728839
  C        15.5519796120       11.4595925084       10.2769886116
  H        14.9313279055       11.9893818909        5.1644348146
  H        14.0831970098       11.5403428854        6.4312061876
  C        13.5532630595       10.3799298252        4.8158400902
  C        18.4704178519       14.5713293963        3.4027501394
  C        15.5281065075       12.8002927272       10.4062293405
  H        15.8307259896       14.6245663581        9.4034254194
  C        15.0974982274       11.0722418219       11.5523410308
  H        12.5987292378       10.8375556104        4.7132327941
  H        13.3064838164        9.4436030994        5.2916424028
  C        13.9627199901       10.0796209217        3.3216579686
  C        18.2655806600       15.9763536023        3.0447215593
  C        18.8391890180       13.6621267329        2.3260544516
  C        15.0446032151       13.4440976409       11.6834682279
  C        14.7337462962       12.1228756680       12.3193000626
  S        14.8938354428        9.5410471198       12.3453577872
  H        14.6560186450        9.2567438806        3.3538628771
  H        14.5149323319       10.9415975578        2.9353879800
  C        12.8124650187        9.7136131127        2.3514532180
  N        17.8180533922       16.9552826393        3.9623053556
  C        18.5450601945       16.4660026055        1.7512080819
  C        19.0765171463       14.1927516574        1.0664921139
  H        18.8221486722       12.6346023399        2.5988101922
  C        13.8176923251       14.2674151315       11.3021759242
  C        16.1124002366       14.1805068284       12.4802802262
  C        14.3524295011       11.6844620615       13.5946058490
  C        14.4111214044       10.3012482336       13.8022560487
  H        12.2270999153        8.8385416821        2.7056983809
  H        12.0891642696       10.5073112234        2.2488475068
  C        13.2252253851        9.2647603255        0.9055816786
  S        17.8594464573       18.3698702864        3.1955637804
  N        18.2214430992       17.8089849039        1.7072327385
  C        18.9176220799       15.6163061272        0.7110800011
  H        19.2835399708       13.4777984963        0.3002267709
  H        14.0511471176       14.9411479931       10.4968090997
  H        13.5371381129       14.9776237033       12.1359803837
  C        12.5679091532       13.4764375661       10.9087626984
  H        16.5161069875       14.8986772889       11.8645823410
  H        15.8121992594       14.8099453296       13.2803086997
  C        17.1948905635       13.3126670782       13.0448849904
  H        14.0277338583       12.4513550773       14.3458062511
  C        14.1808420142        9.4929879091       15.1026057512
  H        12.5702864630        8.4914624465        0.5673440516
  H        14.2580923946        8.9103204299        0.8842134582
  C        13.0670589883       10.4437893103       -0.0512937872
  C        19.2073563396       16.2003488974       -0.5862238650
  H        12.7835318003       12.9649234143       10.0002673146
  H        12.2518262614       12.7608463324       11.6692400802
  C        11.3961150765       14.3753078827       10.6417067156
  H        17.3937401671       12.5777648466       12.3138938979
  H        16.8451688370       12.8133751293       13.9108736661
  C        18.4357556198       14.1053562236       13.3764430267
  C        14.1887087900        8.1237324637       15.2796300756
  C        13.9238229985       10.2925871956       16.3474885992
  H        11.9661959281       10.6511564563       -0.2099126327
  H        13.3650198061       11.3743260698        0.5113571150
  C        13.7355834549       10.3432963858       -1.4498443238
  H        19.0777416280       17.3002643025       -0.7067783606
  C        19.5513410823       15.6316057926       -1.7904335451
  H        11.7760983161       15.1151522331       10.0118949611
  H        11.1666707180       14.7929329565       11.6581131206
  C        10.3176413322       13.6496871690       10.0631624633
  H        18.7361230826       14.6883204183       12.4557247361
  H        18.1617406415       14.8468581570       14.1560412817
  C        19.6079395051       13.2348364224       13.8094882526
  N        14.4032258093        7.1578705719       14.3181032233
  C        13.8160440394        7.5444871913       16.5018914829
  C        13.7705855596        9.7169922648       17.5790728464
  H        13.9830928206       11.3642019739       16.2521415271
  H        14.7615453173       10.0248148060       -1.3745321338
  H        13.7048216911       11.2691691268       -1.9786268847
  H        13.2202887156        9.5706563367       -1.9396700462
  S        19.8525888388       13.9499484352       -2.0956833640
  C        19.6956199003       16.5954593733       -2.9467096507
  H        10.7084950137       13.0641520113        9.1774640124
  H         9.9318206917       13.0484191035       10.8969791127
  C         9.2307959721       14.4091259413        9.3691482083
  H        19.6898580638       12.3215698126       13.1987360472
  H        19.5343761116       12.8620429596       14.8479969478
  C        20.9703449092       13.9713998286       13.7279929345
  S        14.1064882209        5.6126108617       14.9345064003
  N        13.5811735943        6.1387607519       16.4276398273
  C        13.7065476752        8.2239380955       17.6910832562
  H        13.5532568783       10.4407996915       18.3430671314
  C        20.2267714555       14.5382817725       -3.7253074471
  N        20.2613373850       15.8649898950       -3.9498124003
  O        19.6690992211       17.8259096138       -2.8184288840
  H         8.6444926037       14.9416271764       10.1188624488
  H         9.5034874173       15.1641595785        8.6946269467
  C         8.3411197575       13.3285857851        8.6866583495
  H        21.7922832347       13.2518112052       13.5893182142
  H        20.9618649891       14.5098641037       12.7835683865
  C        21.3178285051       14.8274511669       14.8880378509
  C        13.3806852082        7.5789181659       18.8987646555
  S        20.5101851942       13.5619721648       -5.1041165031
  C        20.6096195982       16.4450215258       -5.2682422519
  H         8.9193297716       12.8219342026        7.8995901515
  H         7.9734333002       12.5024274759        9.3256213288
  C         7.1887089170       14.1127669138        8.1462685470
  H        22.0250491300       14.3007536264       15.5198623188
  H        20.3999876131       15.0659511559       15.4791635857
  C        21.9026348880       16.0884861480       14.3236818364
  H        13.5110524677        6.5196695860       18.8743977635
  C        12.7722855090        7.9271497359       20.0849576066
  H        21.5268824378       15.9520616059       -5.6505805186
  H        20.8832053663       17.4994840442       -5.1647305392
  C        19.3095377229       16.4799018274       -6.0288543514
  H         6.6462334293       13.5837696985        7.3608194086
  H         7.4183989018       15.1478444246        7.8224493417
  C         6.1462570443       14.3444821116        9.2532040503
  H        22.8510699368       15.7724755625       13.9542921684
  H        21.1872413695       16.4057279990       13.5679546216
  C        22.1601426821       17.1722612072       15.4231110604
  S        12.2266194291        9.4408653204       20.5201972093
  C        12.6006498868        6.8190770924       21.0692709792
  H        19.1512692959       17.3794074151       -6.6440812727
  H        18.4497706477       16.1929531451       -5.4052196943
  H        19.3502875203       15.7575018306       -6.8444353800
  H         6.5340981504       13.8566476244       10.2032388226
  H         6.1349924016       15.4076586703        9.5856329405
  H         5.1569272669       13.8750931519        9.1062774761
  H        21.2567991576       17.2870059719       16.1710884753
  H        22.9981385242       16.7778651125       16.0599115816
  H        22.4209998889       18.1495243594       15.0668050657
  C        11.7140848138        8.6088867910       22.0624604676
  N        12.0246255809        7.2966950262       22.1457747440
  O        13.0593001329        5.6867866894       20.9689569550
  S        11.5335626823        9.5214148010       23.6068246580
  C        11.9788111629        6.5962331329       23.3880802681
  H        11.6995092609        5.5884332148       23.0515321122
  H        11.1542864730        6.9956250042       23.9412736021
  C        13.3675572011        6.5547260830       24.1526620277
  H        13.4163277844        7.0622920189       25.1238917127
  H        14.1886652396        6.8387637003       23.6341915865
  H        13.5244640236        5.5275963769       24.4075102980
