352
 i =    19200, time =    19200.000, E =        25.3967008503
  H        11.6716082096        7.3638492264       31.8388454888
  C        11.1823644800        6.3627353960       31.8560698233
  H        11.8806695112        5.7461067272       31.2452741507
  C         9.8507289345        6.4141358835       31.1404904076
  C        10.9988649818        5.8148564879       33.2729511314
  C         9.9864645152        6.7000538494       29.6490631105
  H         9.2368947698        5.5294027817       31.2074947558
  H         9.3223325036        7.3002134166       31.5403027624
  H        10.6109565947        6.5701645135       33.9457628919
  H        10.3316506882        4.9825398458       33.1962830032
  H        11.9860661070        5.4248647688       33.6493031424
  C        10.2855976305        5.5020481738       28.7512170615
  H        10.7918244575        7.4913353282       29.6005092837
  H         8.9979174601        7.1802883521       29.5466127263
  C        10.6702793794        5.9613507547       27.3702991972
  H        11.1060831906        4.8559384722       29.2408572455
  H         9.3951507259        4.8448553172       28.7342690997
  C         9.7783606458        5.3929711941       26.2884476384
  H        11.6604256287        5.6687842485       27.1377432235
  H        10.6068018945        7.0819150706       27.3823166591
  C         8.4974062310        6.2595177527       26.1481412209
  H        10.2237287873        5.3574940797       25.3140300345
  H         9.5983977587        4.3954955526       26.5624324021
  C         7.4351247567        5.4213612973       25.4522223838
  H         8.1406403338        6.7210284362       27.0697373823
  H         8.7188578112        7.1570348371       25.5505823199
  C         7.0670871135        4.0593161216       26.1046469726
  C         7.7988066455        4.6748779982       24.1835764813
  C         6.1741703329        6.3043156316       25.3016986725
  C         7.3438960793        2.9074212904       25.3017873377
  C         6.5068348312        3.6627957941       27.3607071132
  C         7.8513724586        3.3126046111       24.1079934810
  C         8.2404489190        5.3850628259       23.0763652127
  H         6.4292745370        7.2685313254       24.7661160516
  H         5.8885634111        6.5671862396       26.3534002753
  C         4.9433597673        5.5555217041       24.7344882096
  S         6.8688997289        1.3955198973       26.0336355149
  C         6.3545767494        2.3043526057       27.4702311333
  H         6.1506784951        4.4216736528       28.0793047808
  C         8.1270657743        2.7052765925       22.9040202458
  H         8.4029730161        6.4306967854       23.1147746815
  C         8.5348690668        4.7703313179       21.8680433542
  H         5.1211162504        5.0831895152       23.7530857098
  H         4.6269358459        4.8421304143       25.4016832482
  C         3.7815648923        6.5163762962       24.4519305337
  C         5.7241804235        1.6542222353       28.6920432296
  C         8.5206940129        3.4220893753       21.7964661139
  H         8.1382611138        1.6427783501       22.8660954202
  C         8.9543181435        5.1183974349       20.5816257749
  H         3.0811598669        6.0354969256       23.7301573731
  H         4.0621997153        7.4260377230       23.9611298926
  C         3.0471919124        6.6619627428       25.7677612364
  C         5.6676706804        0.2621830149       28.9034108523
  C         5.1960149317        2.5000492224       29.8174349318
  C         8.9321379010        2.7075500437       20.5351789418
  C         9.0903913653        4.0326738170       19.7900876623
  S         9.3295664332        6.5395734082       19.8669380855
  H         2.3235992736        7.5112754824       25.7769594728
  H         3.7397871052        6.8467027902       26.5855738256
  C         2.1449178913        5.4659597507       26.2839154864
  N         6.1016679536       -0.6736271486       27.9763189688
  C         5.4089440515       -0.2511666794       30.1724079513
  C         4.8579011468        1.9636186780       31.0365607968
  H         5.1278844018        3.5628443352       29.7643669541
  C         7.8049025188        1.8751223138       19.8209092456
  C        10.2290663069        1.9176332353       20.5783589793
  C         9.3547940210        4.2638792842       18.4837488053
  C         9.5143029244        5.6655162148       18.3352419318
  H         1.3350987886        5.1821403959       25.6450730909
  H         2.6078731545        4.4963794612       26.3427192241
  C         1.5231864721        5.7499029131       27.6334712114
  S         6.1922451171       -2.1133444292       28.7061624907
  N         5.5046868929       -1.6525164748       30.1486092177
  C         4.9806503487        0.5355844976       31.2484315673
  H         4.6695252820        2.6391774346       31.7802511283
  H         7.4692326600        1.0915169088       20.5862881219
  H         8.2489775805        1.4355776343       18.9302665407
  C         6.5553652289        2.6660894430       19.3492511867
  H        10.4881907166        1.5231972535       19.6134742743
  H        10.0936770176        0.9755599389       21.1102650312
  C        11.3870230307        2.7765018887       21.0638497086
  H         9.2949233752        3.5354845387       17.7498810924
  C         9.7205822907        6.3605687137       17.0081880879
  H         0.5650598343        5.2332054097       27.7837204362
  H         1.1715615428        6.8269159809       27.7960476338
  C         2.3251599534        5.3061026352       28.8832405328
  C         4.8597967414       -0.0999029595       32.5177950765
  H         6.7786823433        3.4107663821       18.5489152577
  H         6.1774186808        3.1545737253       20.2662975009
  C         5.4078724162        1.8107474526       18.7190319821
  H        11.3161961296        3.1436125604       22.1299473182
  H        11.3829339175        3.6849264331       20.4693858806
  C        12.7402547351        2.1406467653       20.9030166396
  C         9.9601811736        7.7332181217       16.7977926480
  C         9.9157775205        5.4416300297       15.8387209498
  H         2.6956347039        4.2707758274       28.7905840002
  H         3.2966864184        5.7077060639       28.9923178138
  C         1.6085720718        5.4862405075       30.2520494905
  H         5.0095115730       -1.2039050785       32.4694933781
  C         4.6241583814        0.4084288103       33.7683035839
  H         5.6359341072        0.8187376449       19.0309275586
  H         5.5631802859        1.8088508780       17.6311735692
  C         3.9715395989        2.2290818330       19.0956607931
  H        12.8498877803        1.4845584676       21.7330932680
  H        12.8252934699        1.6055624997       19.9470109455
  C        13.9450369609        3.1116265489       20.9729295206
  N         9.8591596970        8.7282724838       17.7208702976
  C        10.4091463623        8.2194870965       15.5576075292
  C        10.3291471233        5.9333352730       14.5911273896
  H         9.8451799790        4.3911341674       16.0291017559
  H         1.5950426904        6.5405394167       30.4894907319
  H         0.6269157754        4.9021949651       30.3129307074
  H         2.2486166754        5.0735408318       31.0583833915
  S         4.3099614748        2.0578822266       34.3331999924
  C         4.6236143553       -0.6120188927       34.8586226158
  H         3.9123853948        2.6401667395       20.0707657718
  H         3.6123056531        2.9341258363       18.3958470206
  C         3.0880744563        1.0036563103       19.2266984523
  H        13.6744749614        4.0197430773       20.4257170700
  H        14.7768618427        2.6554203821       20.4233529623
  C        14.3369305900        3.4339034269       22.4246231082
  S        10.0915646326       10.1439305234       16.9582661120
  N        10.5950085930        9.5376594827       15.5414915537
  C        10.5852660164        7.3697238059       14.4142812671
  H        10.4092523811        5.2354095200       13.7734772701
  C         4.2385458974        1.3733206249       35.9353983480
  N         4.3122295695        0.0058054381       36.0095133798
  O         4.9167760825       -1.7777813021       34.7070650215
  H         2.1116339985        1.2747461290       19.5134934389
  H         3.5025486479        0.2868323599       19.8816911510
  C         3.0631726129        0.2124920163       17.9589249064
  H        15.0434512098        4.2732737202       22.4432942837
  H        13.4791814279        3.6176113214       23.0931217738
  C        15.0492775668        2.2255795312       23.0946322658
  C        10.8349003945        7.9881272992       13.1504644415
  S         3.9986746480        2.3125395132       37.4436443364
  C         4.4059858295       -0.8011309886       37.2623499531
  H         3.0903610153        0.8670726004       17.0493354557
  H         4.0155463368       -0.3834222970       18.0184258382
  C         1.8027523218       -0.7368126554       18.0161091531
  H        14.9974150649        1.3448648730       22.5300543724
  H        14.4696402272        1.9923241207       23.9853388657
  C        16.4500666708        2.4721678626       23.4192988377
  H        10.5786633428        9.0235314683       13.1054284235
  C        11.4334848653        7.5596148750       11.9942450839
  H         3.7878019884       -0.2347345777       37.9754035522
  H         3.9398453930       -1.7645199035       37.1284227493
  C         5.8571371466       -1.0262164296       37.7660895951
  H         1.0254973314        0.0123515797       17.9542232791
  H         1.5824518821       -1.2080756442       18.9206335928
  C         1.6941216526       -1.7789124085       16.9002603535
  H        16.4757509353        3.4506912116       23.8755572996
  H        16.6253934742        1.7032566473       24.1860796047
  C        17.2954405005        2.3607399473       22.1546071772
  S        12.1216632418        5.9758015644       11.8328032338
  C        11.5126039885        8.5423161431       10.8375741030
  H         5.8909838017       -2.0666048087       38.0816987583
  H         6.5323486933       -0.8599784017       36.8992173458
  H         5.9930579476       -0.3338902140       38.6071005219
  H         1.9224057308       -1.3753502278       15.9174651667
  H         0.7085325360       -2.1297850987       16.8662967807
  H         2.2546196326       -2.6603056396       17.0669286366
  H        18.3461797950        2.2732455096       22.3454128201
  H        17.2422190110        3.2840150502       21.6204234000
  H        17.0087657064        1.4582973260       21.5907724186
  C        12.7385383316        6.7000382886       10.2232568105
  N        12.2746425014        7.9210475942        9.8632474003
  O        11.1123659359        9.7105914453       10.9127378481
  S        13.9403448043        5.8316933013        9.2132641111
  C        12.8724778217        8.5067414610        8.6916896358
  H        13.9138623491        8.7332047426        8.8585885966
  H        12.8601819005        7.7732700011        7.8217685198
  C        12.0283325577        9.6478494750        8.1082387579
  H        12.2590405320       10.6918008497        8.4462175601
  H        12.1840176710        9.6225182629        7.0265750330
  H        10.9187115648        9.5964985408        8.3241363483
  H        21.1151986170       10.7719053248        3.1593584768
  C        21.7470168927        9.9042669180        3.1953910153
  H        20.9483606805        9.1552731393        3.2827414439
  C        22.5768403971        9.9786014847        4.4789964942
  C        22.5709549831        9.7667440193        1.9324850460
  C        21.6584372082       10.2994767612        5.6308321695
  H        23.1873198941        9.0893531467        4.5454263644
  H        23.3124077152       10.8552601663        4.4550119929
  H        23.1880757702        8.9256979870        1.9344592472
  H        23.1888028663       10.6534586874        1.8576685280
  H        21.8519819609        9.8110431791        1.1201869135
  C        21.2490494660        8.9987545326        6.3279323491
  H        22.1103781761       10.9248989335        6.3423228861
  H        20.7868168811       10.8434740595        5.2826260006
  C        20.3301047285        9.1877626737        7.5554539159
  H        22.2029439550        8.5048393812        6.6302331376
  H        20.7988849203        8.3587002757        5.5946815585
  C        19.2573978975       10.3387528937        7.5706418454
  H        21.1333151051        9.4316484481        8.2526592433
  H        19.9053359532        8.2871371671        7.9995545459
  C        17.9828934140        9.7517506048        7.0407727370
  H        18.9867552376       10.5738903887        8.6725121041
  H        19.5909828735       11.2129842896        7.0734462912
  C        16.7023447022       10.6381991750        6.8174966797
  H        17.7199664589        8.8951838933        7.6035494804
  H        18.1611431096        9.3468716071        6.0391217672
  C        17.0152430894       12.0158585399        6.1777988109
  C        16.2915696107       11.3791631846        8.0697038470
  C        15.6959401621        9.9372580611        6.0047143999
  C        16.7370403277       13.1245558470        6.9083181153
  C        17.6552584015       12.3515245068        4.9537485293
  C        16.1202545442       12.7483691165        8.0792538066
  C        15.8460361259       10.7596604539        9.2455125786
  H        16.1935358578        9.9039230055        5.0121807490
  H        15.4750664895        8.9398168756        6.3012933155
  C        14.4159136856       10.7293070829        5.6271544077
  S        17.1540947805       14.5902845694        6.1379465454
  C        17.7630283913       13.7119354025        4.7298615201
  H        17.8380683365       11.5841315779        4.2532935982
  C        15.6554493868       13.4222407053        9.1717433541
  H        15.8314608226        9.7438923606        9.3639505228
  C        15.3557406659       11.4254990097       10.3421177009
  H        14.6853490221       11.7146198313        5.2436142451
  H        13.7672459799       10.8537461987        6.4778973653
  C        13.5396564684        9.9866678698        4.5591647575
  C        18.1429025415       14.4549553237        3.4694344713
  C        15.3054112419       12.8180552244       10.3678861431
  H        15.6567846839       14.4995712370        9.1654897834
  C        14.8939528148       11.0803516119       11.5831907022
  H        12.5906019369       10.3515297500        4.7345029279
  H        13.4325267294        8.9529125037        4.8853910414
  C        13.9693814266       10.1540043679        3.1856933477
  C        18.1310410429       15.8761237485        3.2563338317
  C        18.4739774351       13.6435558936        2.3125958338
  C        14.7853680663       13.5809913512       11.5056454638
  C        14.6251117540       12.2358934973       12.3323832576
  S        14.6775626619        9.6749135959       12.5051307152
  H        15.1041701840       10.3412583473        3.1012375787
  H        13.4874020941       11.0353089272        2.8452934177
  C        13.4952159573        9.0293682364        2.3332245944
  N        17.9582796713       16.8025311493        4.2770794418
  C        18.4359558123       16.4607976415        1.9973321346
  C        18.7638688448       14.2317761019        1.0782148520
  H        18.6166915774       12.6259196055        2.4415940754
  C        13.4006935219       14.0990346383       11.2994095250
  C        15.8099241679       14.5486564352       12.0914421925
  C        14.2312812601       11.9093547495       13.6690172447
  C        14.1930292207       10.5392391944       13.8279830088
  H        14.3581756252        8.3246229584        2.1955258193
  H        12.6722854551        8.4799015046        2.7776970723
  C        12.8161362670        9.4274740560        1.0801666027
  S        17.8631685467       18.2350595582        3.5365221776
  N        18.2379018131       17.8291250496        2.0068677852
  C        18.7698929475       15.6875431606        0.8174413146
  H        18.9985456722       13.6135003999        0.1690774124
  H        13.3375234163       14.9965646927       10.6666230772
  H        13.0621790843       14.4321980464       12.2796353462
  C        12.3977963653       13.2219245528       10.7711496810
  H        16.1413841002       15.2763831078       11.3550970124
  H        15.4030329001       15.0732293817       12.9463096475
  C        17.1362728520       13.9409421564       12.6294608550
  H        13.9859722810       12.7785067101       14.2572538633
  C        13.9619610974        9.7998077894       15.1289903732
  H        11.8475080976        9.8923569444        1.3265598471
  H        12.6053830708        8.4645646866        0.6096907118
  C        13.5081114531       10.2583302247       -0.0122852441
  C        18.9227611704       16.3256281338       -0.4231548729
  H        12.7630235842       12.5572847932       10.0515917357
  H        11.9317230529       12.7177158680       11.6005597820
  C        11.1283047053       13.9483060473       10.2058335589
  H        17.4941781272       13.4564790013       11.8244720112
  H        16.9106377249       13.1840583581       13.3474067667
  C        18.1037367740       15.0194987767       13.1551800044
  C        13.9597594818        8.4638835468       15.3520698991
  C        13.6903825454       10.6460661288       16.3440853657
  H        13.4742057135       11.2915944936        0.2521320142
  H        14.5530794434        9.9712497428       -0.1897108623
  C        12.7556308550       10.2154992361       -1.3201797222
  H        18.8898563588       17.3833680188       -0.3660005646
  C        19.2979827664       15.9330482617       -1.6968616720
  H        11.4485256390       14.7013233098        9.4272704405
  H        10.7549020682       14.6146373537       10.9337504207
  C        10.1323220503       13.0076559251        9.5226997845
  H        18.4000398622       15.6828631837       12.3296485221
  H        17.5604462308       15.6608368350       13.8531906654
  C        19.3260032617       14.3175387208       13.7671757951
  N        14.0768263676        7.4232372886       14.3880547482
  C        13.7132090213        7.8975462641       16.6121103160
  C        13.4548781083       10.0791358572       17.6245940059
  H        13.7595838596       11.7359813739       16.3023281589
  H        13.2726425061       10.8851697649       -2.0591883662
  H        11.7092923169       10.6238375080       -1.2468980125
  H        12.6657987728        9.2068464452       -1.6255516020
  S        19.5699846734       14.3860722322       -2.3100734596
  C        19.2911607047       16.9739261351       -2.7772231158
  H        10.6957538091       12.4599522635        8.7227529052
  H         9.7572475485       12.3174878382       10.2407821508
  C         8.9872465153       13.7789662798        8.9509301698
  H        19.7375478000       13.7784453793       12.9413872634
  H        19.1030261821       13.6723776196       14.6427980119
  C        20.3065947976       15.2729660432       14.4006294996
  S        13.8108781044        5.9687851048       15.1566614666
  N        13.5504960168        6.5208333180       16.6089155038
  C        13.3478389690        8.6348392973       17.7623798275
  H        13.3804497430       10.7155323361       18.4765584615
  C        19.7652573795       15.0440151600       -3.9465112985
  N        19.5414496833       16.3666059995       -3.9669312919
  O        18.9468803421       18.1330911310       -2.5965201627
  H         8.7688360490       14.6260234328        9.6191354148
  H         9.3091840837       14.4157820844        8.0905271196
  C         7.6902685850       12.9523484358        8.7675565997
  H        19.9972727988       15.7119587543       15.2930557870
  H        21.2120700079       14.6967021176       14.7496517220
  C        20.9143310498       16.1976447296       13.3619499403
  C        13.0126540816        7.9433828095       18.9499598069
  S        20.1030703599       14.1985831772       -5.4792091143
  C        19.4864118001       17.0800332959       -5.2185810507
  H         7.6485057203       12.5074092417        7.8022327367
  H         7.6029677837       12.1484184654        9.5419608258
  C         6.3840916515       13.7846966332        8.7377056048
  H        20.1375147045       16.8200709352       12.8900236133
  H        21.2977481296       15.5176198741       12.5557413293
  C        22.0494027066       17.0916497961       13.8638766007
  H        13.1598336894        6.8540661525       18.9576270351
  C        12.4885218669        8.2445153890       20.1846132549
  H        20.3404340151       16.8307121670       -5.9012890949
  H        19.6692345838       18.0794155239       -4.9126907119
  C        18.1635767919       17.0887265749       -5.7999880552
  H         5.5571744279       13.3132756388        8.2695250512
  H         6.6488756173       14.6286776079        8.0575749584
  C         6.0250973710       14.3662489772       10.1081836457
  H        22.8007063615       16.5576626288       14.4586554557
  H        22.4942650203       17.5930544147       12.9921613868
  C        21.5404736267       18.1941218021       14.8404961906
  S        12.0159893674        9.7833232397       20.6891086298
  C        12.3504002488        7.2314384568       21.1615813885
  H        17.3059115348       16.9933630523       -5.1172408826
  H        18.1001088146       16.1828069612       -6.4561992007
  H        18.0951404756       17.9966955720       -6.4803068595
  H         6.5035804470       13.8865655885       10.9855750960
  H         6.4424695900       15.3396179535       10.1774347852
  H         4.8906267607       14.4349203249       10.2802110554
  H        20.7985915817       18.8412292255       14.4945623218
  H        21.2375238698       17.7165056892       15.7135213381
  H        22.3299492907       18.8970520675       15.1026158963
  C        11.5319661168        9.0303412371       22.1995969751
  N        11.6949525685        7.7145254644       22.2384246264
  O        12.7329356213        6.0891043696       21.0515940868
  S        10.7862965712        9.8372354109       23.5490656693
  C        11.5227681309        6.9646280009       23.4451224326
  H        11.3959784860        5.9571322827       23.1755224835
  H        10.6071734006        7.3588834155       23.8128633342
  C        12.7535249492        7.1185990266       24.3678617860
  H        13.6812279232        7.0398945625       23.7454326254
  H        12.9377684386        6.2873186713       25.0363789734
  H        12.7407711344        7.9302572400       25.1278747432
