352
 i =    54800, time =    54800.000, E =        24.9730545012
  H        12.4303286008        5.0836155057       32.5934470713
  C        11.3661897461        5.2754378466       32.4984698792
  H        10.9587161158        4.3021452821       32.1729262799
  C        11.1813992299        6.3280035297       31.3837455711
  C        10.7595404922        5.6670395981       33.8655560874
  C        11.5195096935        5.9278611613       29.9452153163
  H        10.1090474140        6.4773584581       31.4628450017
  H        11.5194483659        7.3408386977       31.7186391028
  H        10.4022789165        4.7780095782       34.3619873121
  H        11.6445718518        6.1447731353       34.3192898498
  H         9.9358549441        6.3235528090       33.6885612615
  C        10.4063937172        6.1601160203       28.9482984409
  H        11.7251945693        4.8809719103       29.9277942667
  H        12.3541608307        6.4192537685       29.4733589490
  C        10.8411846997        5.8578415186       27.4374262215
  H         9.4764295089        5.5924191025       29.2640245891
  H        10.0099738358        7.1609378829       29.1482699188
  C         9.7803944797        5.1319502172       26.5824665670
  H        11.7604309584        5.1887220844       27.3952878787
  H        10.9520733883        6.8793645141       27.0458109263
  C         8.6183964725        6.0324188147       26.1739622596
  H        10.2380596986        4.7401663333       25.6740943678
  H         9.4580528137        4.2626417173       27.1482045021
  C         7.3858504001        5.3468126918       25.5318291218
  H         8.3725163440        6.6095778115       27.0482491005
  H         8.9796682064        6.7574750073       25.4344774223
  C         6.9997069864        3.9631087378       26.2256768359
  C         7.8510078250        4.5466114443       24.3166249128
  C         6.1120555893        6.1978641109       25.4441617546
  C         7.2802995162        2.8758949376       25.4104389798
  C         6.5022560397        3.6533628409       27.5093486452
  C         7.7577929220        3.2060400987       24.2022088745
  C         8.3506324995        5.1376707019       23.1605202487
  H         6.2303114051        7.0475863490       24.8091931601
  H         5.9621890431        6.6602830319       26.4733104250
  C         4.8275285440        5.4691047717       25.0134490199
  S         7.0332165173        1.3735088529       26.2108767486
  C         6.3786256273        2.2853186125       27.6410769688
  H         6.3184139298        4.3858994847       28.2386571654
  C         8.0671041411        2.5573047480       23.0789396735
  H         8.4561544449        6.1736923368       23.2206490497
  C         8.6719305054        4.4641182787       22.0438864760
  H         4.9516208966        5.3628565170       23.9227748439
  H         4.7515874335        4.4840052594       25.4654545864
  C         3.6145317514        6.3516810525       25.1533800577
  C         5.8835523987        1.5428232826       28.8103786739
  C         8.6836371987        3.1156106511       21.9466316764
  H         7.8231252444        1.4909343425       23.0890470009
  C         9.1209749902        4.7488910723       20.7962884300
  H         2.9334652664        6.0532338920       24.3396951441
  H         3.6711110077        7.3834508367       24.7403569552
  C         2.9253448546        6.2830872566       26.4866238951
  C         5.9874110029        0.1621203836       29.0696553004
  C         5.2257443914        2.3897429965       29.8832149291
  C         8.8468929115        2.3477485281       20.6954305857
  C         9.2616695721        3.6220332630       19.9654604603
  S         9.6169527676        6.2491491962       20.0703906579
  H         2.1203870987        7.0449717926       26.4943069793
  H         3.6347088994        6.6022271018       27.3062655524
  C         2.2025417789        5.0508997614       26.8431369768
  N         6.4166468360       -0.7951777966       28.1534726614
  C         5.6808216752       -0.3613459408       30.3093197226
  C         5.0010134169        1.8158096841       31.0977073957
  H         4.9654933555        3.4631313596       29.7726264666
  C         7.5793590859        1.7822048272       20.0068338137
  C        10.1074534658        1.5276638754       20.7216771288
  C         9.7535582372        4.0040093041       18.7398559277
  C         9.8399389545        5.3805379582       18.6067296507
  H         1.5196145250        4.7947323944       26.0169957831
  H         2.8858636124        4.1705776412       26.9013285669
  C         1.3564881704        5.1783090822       28.1603075921
  S         6.3380399490       -2.2834988421       28.8965372269
  N         5.8478910302       -1.7470332515       30.3220650120
  C         5.2070294203        0.3819440674       31.4082592801
  H         4.7519157573        2.4891729096       31.9001782363
  H         7.0607546329        1.2561439732       20.8004823959
  H         7.8798307965        1.1311627666       19.1827641757
  C         6.5633441690        2.7942066120       19.4630975430
  H        10.1907287097        0.9972603532       19.8070387542
  H         9.9762282344        0.7078362965       21.3971703658
  C        11.4318251193        2.1818128630       21.2328765756
  H         9.8395671211        3.2257814116       18.0117694867
  C        10.1336106065        6.0996078581       17.3326106894
  H         0.9923178272        4.1823944757       28.3173743052
  H         0.5400694931        5.9047334713       27.9386749393
  C         2.1030467847        5.5354765842       29.4696475436
  C         5.0343474019       -0.3459791258       32.6614829082
  H         6.9298221022        3.0554851629       18.4969005443
  H         6.3842972459        3.6294013361       20.1357599108
  C         5.2283120568        1.9933175532       19.3261954185
  H        11.2731548625        2.4379876147       22.2744440390
  H        11.5356712855        3.2412412451       20.7971219947
  C        12.6832312333        1.2559117045       21.2392480950
  C        10.2345217696        7.5097620140       17.2156606646
  C        10.2907834994        5.3728462513       16.1003630946
  H         2.9506032896        4.8104589370       29.6934630507
  H         2.5992922011        6.4861445559       29.3728409182
  C         1.2178761390        5.6810395471       30.6371171892
  H         5.3423570092       -1.3246310830       32.6537043226
  C         4.5590717020        0.0131539655       33.8839982639
  H         4.6309199164        1.9048779607       20.1651315288
  H         5.6126482370        1.0188454659       18.9909452646
  C         4.3948456470        2.3831560832       18.1204963745
  H        12.6152202437        0.5647990705       22.0458995257
  H        12.5094736468        0.6229101094       20.3419469802
  C        14.0018067693        1.9365348072       21.3580837726
  N        10.0579667703        8.4508778258       18.2890241313
  C        10.5175097224        8.1379687298       16.0515806757
  C        10.3281541811        6.0254420810       14.8598205171
  H        10.2221317151        4.2595213769       16.0953708521
  H         0.7285634581        4.7973417113       31.0461744162
  H         1.8660111021        6.1817042553       31.4496556147
  H         0.4327751481        6.4072424451       30.4679227036
  S         4.3207216177        1.6153285607       34.4032149097
  C         4.5967010527       -0.9564928511       35.0048473583
  H         4.3141478189        3.4867695490       18.1938234119
  H         4.8802543646        2.2106777704       17.1280595421
  C         3.0565552632        1.7318464938       18.0890231143
  H        13.7816966864        2.8351119053       20.7129290061
  H        14.7577981544        1.3603049556       20.9259999361
  C        14.3824660108        2.2450463875       22.8431190574
  S        10.4035232018        9.8979780467       17.7176617634
  N        10.5961922416        9.5241307130       16.1745342119
  C        10.6865971499        7.4311651696       14.8295580534
  H        10.2195197974        5.4067233857       13.9646310171
  C         4.0302162599        0.9609744520       36.0042101988
  N         4.1352627797       -0.3965982058       36.1509843603
  O         4.8596208607       -2.1670145043       34.8952013283
  H         2.3747174466        2.2260364854       17.4878710908
  H         2.5271113206        1.6240240489       19.0757697290
  C         3.1859508144        0.4017048907       17.4542444343
  H        13.8316070970        3.1551554305       23.0944931575
  H        13.9876340615        1.4391350248       23.4549258547
  C        15.7848072033        2.4938795120       23.2098674216
  C        10.8762948184        8.2176005931       13.6725518306
  S         3.6249454529        1.9147455318       37.4615323494
  C         4.2960650382       -1.0346098880       37.4403241023
  H         3.0753672386        0.4668672959       16.3700821041
  H         4.1344382176        0.0072172082       17.5596100706
  C         2.1524627230       -0.4474651752       17.9743610459
  H        15.9806974399        2.1135964316       24.1639887860
  H        15.9061349155        3.5472596991       23.2235974686
  C        16.9295079768        1.8487261796       22.3402038716
  H        10.7447048568        9.2683006649       13.6812859208
  C        11.4009604619        7.9326872301       12.4426784332
  H         3.4841875410       -0.7603179942       38.0895026705
  H         4.1179957126       -2.0859633042       37.0575544726
  C         5.6388267703       -0.8278705692       38.1282353987
  H         1.2444703715        0.1608713135       17.9648259371
  H         2.2404858408       -0.7184521732       19.0364830542
  C         1.7684203305       -1.7045156027       17.1655052829
  H        16.6631417866        0.7882877931       22.1195481405
  H        16.9747866913        2.4876550759       21.4213323171
  C        18.2440529412        1.9188598465       23.0536460238
  S        11.9851933302        6.4198462205       11.9584314602
  C        11.4899028397        8.9809182827       11.3926674394
  H         6.2290621270       -1.7628536396       38.1140840409
  H         6.2051622616        0.0013696148       37.7915054246
  H         5.4752608004       -0.6597308828       39.1248163868
  H         2.6601995830       -2.2888659857       16.8716927696
  H         1.1009502372       -1.5129422312       16.3262396611
  H         1.2887293413       -2.4777537266       17.8122198756
  H        18.1736149365        1.3464339561       23.9263458763
  H        18.6688649596        2.9002790213       23.2956115211
  H        18.9785487091        1.5835310753       22.3228770843
  C        12.1187125563        7.0965641191       10.3190254093
  N        12.0328894424        8.4409000975       10.2547449803
  O        11.0304737450       10.1370308976       11.4500736662
  S        12.6935490591        6.2258142924        8.9143309616
  C        12.0575367443        9.2563112588        9.0627409988
  H        12.2680569366       10.2923453264        9.4218433893
  H        12.7960586084        8.8857569299        8.4311234500
  C        10.7625121464        9.2831947680        8.3186784543
  H         9.9350375640        9.6177341573        8.8547816886
  H        10.8391213161       10.0113617425        7.4980798414
  H        10.4174396094        8.2876816283        7.8834125779
  H        22.9916281641       10.3511306227        3.2031167032
  C        22.4464138496       10.7064997243        4.1021729881
  H        22.8680143580       11.6291747968        4.3962207090
  C        22.6766974079        9.6714427903        5.1901735152
  C        20.9521868336       10.7389545573        3.8945354480
  C        22.0453326911       10.0319698386        6.4935964932
  H        22.3965447726        8.6296891985        4.9274979701
  H        23.7595389878        9.5536762869        5.2950603672
  H        20.5612127511       11.4763489271        4.5461816901
  H        20.4633876284        9.8223553790        4.0462920936
  H        20.8706181348       11.2455539575        2.9068282507
  C        21.1230944985        8.9493530591        6.7870575638
  H        22.8046195096       10.1136054193        7.2454377328
  H        21.5732820845       10.9965918772        6.5847426534
  C        20.3064177523        9.2261878533        8.0888542603
  H        21.6116782635        8.0165883469        6.8355148421
  H        20.3422270086        8.8891308628        6.0176244265
  C        19.0669580997       10.0697147448        7.7187493677
  H        20.8151750346        9.7654100881        8.9006122517
  H        20.0082751157        8.3292161148        8.5290419580
  C        17.8659101524        9.3792464680        7.0730382526
  H        18.7852898168       10.5093445092        8.6871492866
  H        19.5382853415       10.9077900560        7.1663729707
  C        16.6320133479       10.3334276842        7.0367480422
  H        17.4569828293        8.5723320944        7.6841409687
  H        18.0428834576        9.0076371647        6.0432974658
  C        17.0135128756       11.6675456424        6.4047365777
  C        16.2790866551       11.0477287011        8.4039836940
  C        15.4809095253        9.6939440070        6.2740120576
  C        16.8471444275       12.7555635178        7.2210182286
  C        17.5627567841       12.1040328270        5.2056673660
  C        16.3520559065       12.4235969901        8.4597723356
  C        15.7874924261       10.3708759515        9.4797166863
  H        15.8451764053        9.3107505553        5.2869497871
  H        15.2206908116        8.7573325946        6.8420234444
  C        14.2617076323       10.5924316727        6.0245629513
  S        17.3100890299       14.2860696186        6.5099539157
  C        17.7757608141       13.4630651861        5.0396580419
  H        17.7932475312       11.3508813585        4.4912092593
  C        15.9649201681       13.0758949181        9.6118521330
  H        15.6251127207        9.3101609885        9.4057210586
  C        15.3615286516       11.0303456487       10.6149726122
  H        14.5224078873       11.4286136495        5.3282283749
  H        13.9704004649       11.0384371542        6.9585689507
  C        13.1492845645        9.8659983689        5.2233018929
  C        18.2577231022       14.1237646831        3.7790427682
  C        15.4640223110       12.3873989235       10.7572092644
  H        16.0605230361       14.2002641141        9.5985417934
  C        14.9273215819       10.6672614172       11.8320605604
  H        12.1951907999       10.3440800178        5.4657535359
  H        13.0061282094        8.8364382004        5.6126776695
  C        13.3230800660        9.8283730050        3.6454328167
  C        18.2256741608       15.5221531728        3.5691979788
  C        18.5847713479       13.2966905379        2.6115716214
  C        15.1606356027       13.1417474373       11.9762716564
  C        14.8111847106       11.7585715366       12.6632576712
  S        14.7165726668        9.1824911703       12.6613444349
  H        14.1886005635        9.2279939907        3.3556156956
  H        13.5293754867       10.8920570561        3.4586856469
  C        12.0015566458        9.6741954714        2.8429900274
  N        18.0102629603       16.4563378004        4.5964102701
  C        18.3832368741       16.0748834723        2.3245085752
  C        18.7539357185       13.8790001100        1.3504960581
  H        18.5982340007       12.2484072598        2.6342321311
  C        13.9791592940       14.0212357246       11.7602731139
  C        16.4479840057       13.7998971582       12.5682019348
  C        14.5187460964       11.4251416348       13.9661759308
  C        14.4698121091       10.0664593253       14.1482417782
  H        11.3149988285        9.0878553240        3.5037857790
  H        11.7202537692       10.6078019958        2.7011301383
  C        12.1823676050        8.7854082394        1.5479654417
  S        18.1393830218       17.9476754044        3.9813544876
  N        18.2178225622       17.5015742826        2.4086048341
  C        18.6814260095       15.3412945911        1.1719436995
  H        19.0251520651       13.2234984667        0.5155575385
  H        14.2708939003       14.9149780358       11.1851503217
  H        13.6965261340       14.4369747352       12.6907168374
  C        12.7025771087       13.4033032362       11.2426749391
  H        17.0215234605       14.2679392895       11.7871320768
  H        16.1573385218       14.5810799519       13.3600546137
  C        17.4838315326       12.8551791709       13.2221871959
  H        14.5374919190       12.2392667414       14.7140821228
  C        14.1975784795        9.3999888934       15.5380175726
  H        11.2248289418        8.3834579020        1.3163382847
  H        12.6912355875        7.8366558175        1.7950286307
  C        12.9391238140        9.4326055520        0.4155623731
  C        18.8901889972       16.1291714739       -0.0319801131
  H        12.8012650196       12.9305866989       10.2117749508
  H        12.4164640160       12.5163114149       11.8690212272
  C        11.5500981246       14.3840483846       11.3207989600
  H        17.7834894185       12.0874441406       12.4738941288
  H        17.2157267959       12.1926155210       14.0938380086
  C        18.6942752620       13.7245857267       13.6286677262
  C        13.9995841729        7.9500131531       15.6177112140
  C        14.1022686848       10.1755062425       16.7913623776
  H        13.7920239994       10.0667645082        0.7973250887
  H        13.4130830034        8.5803479696       -0.0955389193
  C        12.0853453966       10.1396401881       -0.5936669113
  H        18.7135573557       17.2182193784        0.0451266122
  C        19.2177623111       15.7956468550       -1.3423619927
  H        11.7813124620       15.0445843234       10.4622240675
  H        11.5943077377       14.9665565120       12.2604140942
  C        10.2459299481       13.6400034404       11.1519775120
  H        19.3200030088       13.9822405444       12.7493754385
  H        18.4042844065       14.7553403409       14.0186999299
  C        19.6025685837       13.0052482605       14.6184491501
  N        14.0022020504        7.0657341230       14.5229933244
  C        13.6739842755        7.3509602663       16.8092614253
  C        13.6479958092        9.5499807119       17.9234491136
  H        14.1544572844       11.2786159100       16.7853157474
  H        11.5032568041        9.3082948535       -0.9415760730
  H        12.7423536068       10.5829889817       -1.3519850733
  H        11.4462491378       10.9291708293       -0.1421525220
  S        19.4439188671       14.1955889748       -1.8816211248
  C        19.3018296097       16.8704075679       -2.3522198217
  H        10.4805595435       12.6319725824       10.7712632251
  H         9.7527539220       13.6478230666       12.1103395683
  C         9.3558068098       14.2328028821       10.1402485561
  H        19.7802684458       12.0269818878       14.1439534193
  H        19.1752585674       12.8557975146       15.5599716833
  C        20.9587801304       13.6754340596       14.9087132971
  S        13.7150329994        5.5944257056       15.1074486939
  N        13.5852091798        5.9428412624       16.6614133772
  C        13.5034954708        8.1175509840       18.0121534160
  H        13.5589696292       10.1287984896       18.8876476467
  C        19.6755778262       14.9254751603       -3.4730492866
  N        19.5802698829       16.3078851278       -3.5115699680
  O        19.1710053800       18.0405700060       -2.1154961431
  H         8.7595884741       15.1123639313       10.5707253499
  H        10.0037111520       14.7215351360        9.4328462584
  C         8.3969569568       13.1697378115        9.5483703892
  H        21.1932192618       13.2783951321       15.8981440871
  H        21.7426765595       13.2760325284       14.1348928208
  C        20.9711813502       15.1936282199       15.0068532276
  C        13.2661633026        7.3087313792       19.1874590291
  S        20.0877281234       14.1663399738       -5.0547514961
  C        19.6694483912       17.0698900051       -4.7363284447
  H         9.0528911698       12.5161598744        8.8902009488
  H         7.8969940958       12.5514861191       10.2944183311
  C         7.4088436092       13.8888380344        8.6041167662
  H        19.9108879029       15.4917284213       15.2717495253
  H        21.0902776635       15.5095190459       13.9967058148
  C        21.9869185305       15.8374278750       15.9321289370
  H        13.3530572857        6.2732433374       19.0164613345
  C        12.6852552478        7.5957414279       20.3807554747
  H        20.5210454532       16.7695935178       -5.3567558790
  H        20.0205212967       18.1025756494       -4.4753165431
  C        18.3612131447       17.0444902528       -5.5968618835
  H         7.3029605552       13.1792699056        7.8009750944
  H         7.7353292735       14.7737340615        8.1122613911
  C         6.0545274122       14.0377193131        9.2283806985
  H        21.9056989336       15.4333713288       17.0008258550
  H        22.9201472002       15.5809772711       15.5575040801
  C        21.8364776124       17.3596894050       16.0243528232
  S        12.0861713273        9.1003729784       20.8916545834
  C        12.5251496180        6.4631377302       21.3668410902
  H        18.5635304232       16.8886241347       -6.6484881243
  H        17.8534990711       18.0397056710       -5.5636327517
  H        17.5763682839       16.2403248178       -5.2609007391
  H         6.0456364183       14.9295372073        9.8534673742
  H         5.4069092439       14.3395315837        8.4337449732
  H         5.7478285806       13.1298571408        9.7805172842
  H        21.1379282750       17.7167387110       15.2152110564
  H        21.4557382157       17.6412826469       17.0167993800
  H        22.8313666281       17.7504584980       15.8916886816
  C        11.8789673551        8.2938166928       22.4576580961
  N        11.9510050368        6.9504347058       22.5186876569
  O        12.7939282710        5.2706194805       21.1572949478
  S        11.2783984616        9.0992074649       23.9394661714
  C        11.4554872527        6.0586202359       23.5461115872
  H        11.1208406959        5.1537261989       23.1174036376
  H        10.5876875253        6.6219987200       24.0963590041
  C        12.5844511411        5.5003401345       24.4187460479
  H        12.3166488237        4.5226591764       24.8170645279
  H        12.7182247432        6.1873687576       25.3104493802
  H        13.5796883571        5.4108042527       23.9654716911
