352
 i =    41700, time =    41700.000, E =        24.9492089636
  H        11.5439699749        7.6155821140       32.6180407836
  C        11.4978948946        6.5626760897       32.4366386061
  H        12.5041870369        6.0830753808       32.3564710364
  C        10.5319376683        6.2076118807       31.2549726439
  C        11.0283611893        5.7670739918       33.6271368925
  C        11.1001098604        6.2350719438       29.8690066888
  H        10.1742421813        5.2566884331       31.4284527452
  H         9.6570947522        6.8290958057       31.3816134165
  H        11.3519069184        4.7366547651       33.6863077562
  H        11.4568918680        6.1861651988       34.5279594817
  H         9.9265933795        5.7813878316       33.7203230630
  C        10.1694344117        5.8392863525       28.7420906967
  H        11.8221915300        5.4136263111       29.7477734114
  H        11.5996846497        7.2271247508       29.6333960940
  C        10.8820289308        6.0052965412       27.3824303924
  H         9.8983614900        4.7977383450       28.9273030544
  H         9.2978365759        6.5611532723       28.7999185116
  C        10.0660477160        5.5253720650       26.2097790047
  H        11.6848975312        5.2976161554       27.5028575118
  H        11.1916336170        7.0414575949       27.1338516803
  C         8.7616624953        6.3408976120       25.8992938156
  H        10.7227542456        5.5528625918       25.3048701846
  H         9.8668413749        4.5005440969       26.3097545250
  C         7.6535202681        5.4692519476       25.2193173970
  H         8.2754378008        6.6480515807       26.8381459166
  H         9.0381986734        7.3225011147       25.4262150766
  C         7.3474048688        4.0808443020       25.8534317100
  C         7.9733883843        4.6654862111       23.9514594829
  C         6.3898908588        6.2703715256       25.1112953035
  C         7.4936600193        2.9684900011       25.0281492026
  C         6.8545437806        3.7203596940       27.0709343533
  C         7.9831139188        3.3195351128       23.7863846304
  C         8.3961698364        5.3589826389       22.8127348938
  H         6.6440838246        7.1835615060       24.5691716110
  H         6.1090800129        6.7202546236       26.0767792888
  C         5.1107412325        5.5230840064       24.6272668693
  S         7.0317347820        1.4662999747       25.7483234058
  C         6.5200565202        2.3756881153       27.1642104386
  H         6.8541703134        4.4824599315       27.8045422163
  C         8.3793380352        2.6956355695       22.6231000559
  H         8.4268194821        6.4706448859       22.9047502616
  C         8.6876488970        4.7444185228       21.6017495132
  H         5.3084461371        5.2110860701       23.5986316717
  H         4.9088762205        4.6465082410       25.2945531375
  C         3.8313161165        6.2814110193       24.4748606136
  C         5.9823463701        1.7451916629       28.3765932848
  C         8.6962148573        3.4141313539       21.4748080834
  H         8.3742245182        1.6304545136       22.4508315515
  C         9.0873174260        5.1539297502       20.3376205844
  H         3.0952261516        5.7653360794       23.8266593513
  H         4.0418531174        7.1291317711       23.9765381578
  C         3.0717638578        6.3746011102       25.8638340033
  C         6.0937171207        0.3494438142       28.6993570186
  C         5.4033845398        2.5922537948       29.4424026313
  C         9.0415082841        2.7129589270       20.2230880935
  C         9.1869397334        4.0724386407       19.4457619469
  S         9.4739815901        6.5851103025       19.5494823744
  H         2.2310008736        7.0616004171       25.6537195275
  H         3.7509526000        6.8097897521       26.6290907177
  C         2.6382470183        5.0371971516       26.4934015510
  N         6.4328213704       -0.6780568852       27.7784799515
  C         5.6800911834       -0.1472816760       29.9107211582
  C         5.1640735271        2.0465995559       30.7059501587
  H         5.3841478421        3.6527266548       29.3461322267
  C         7.8616821826        1.9309488505       19.6009948847
  C        10.2829741520        1.8276303653       20.3410023920
  C         9.4692668134        4.4033910262       18.1371734137
  C         9.7015621170        5.7669653502       17.9856677272
  H         2.0180737648        4.4268418311       25.8923321981
  H         3.5320567299        4.4511366616       26.8355226731
  C         1.8042676106        5.3145775054       27.7823938972
  S         6.3584904858       -2.1530136312       28.4812751679
  N         5.7253666419       -1.5896146351       29.8673369663
  C         5.3201926909        0.5972546532       30.9604029628
  H         5.0006664362        2.7444848696       31.5255420857
  H         7.4004815269        1.3840842886       20.4293038741
  H         8.1999259084        1.2555820719       18.8629922943
  C         6.7900021721        2.8133600716       18.8676260366
  H        10.5777020081        1.4886122820       19.3284700834
  H        10.1878644935        1.0631713258       21.0484653302
  C        11.3745247583        2.7817097619       20.8809556904
  H         9.6556085878        3.6299749817       17.4512991739
  C        10.0701194224        6.4710714376       16.7027760126
  H         1.1614774156        4.4633829246       28.0163656457
  H         1.0178353483        6.0674938213       27.5969338508
  C         2.5678080200        5.7799971105       28.9207464773
  C         5.0762850696       -0.1054758562       32.2494260440
  H         7.1895479190        3.1635119715       17.9197275296
  H         6.4523222546        3.7076181169       19.3586616287
  C         5.5102628918        2.0292699208       18.6407435923
  H        11.2102739705        3.0543276973       21.9029310718
  H        11.4595698898        3.6538283355       20.2993360102
  C        12.7684209046        2.1213286396       20.8229003975
  C        10.1279407500        7.8790028894       16.5557628512
  C        10.4092499010        5.6170290101       15.5781028601
  H         3.3325354711        5.0689539411       29.0985543325
  H         3.0650214619        6.7538308305       28.6610712404
  C         1.7181229645        6.0929034752       30.1965853963
  H         5.2321978582       -1.1970814107       32.2701872118
  C         4.6699292366        0.3058272810       33.5212547332
  H         5.1668357016        1.7013610914       19.6282080864
  H         5.7709142372        1.1886873888       17.9324930207
  C         4.3663373339        2.7993318926       17.8720835469
  H        12.9827545840        1.3604439182       21.6182669179
  H        12.9440523253        1.5701520262       19.9373284435
  C        13.9651979710        3.1528591360       20.9243531647
  N         9.9720792868        8.7951286852       17.6330383206
  C        10.4587957760        8.4853890856       15.3656246200
  C        10.6841402933        6.2291904181       14.3346513654
  H        10.4569254024        4.5620982709       15.6551975439
  H         0.9256796631        5.3589519054       30.3549553718
  H         2.4397787470        6.1103245182       31.0557529456
  H         1.1464705890        7.0287299769       30.2201782386
  S         4.1361349199        1.8768732704       33.9137136621
  C         4.6251203654       -0.7316695789       34.5757854492
  H         4.1635178126        3.7759708620       18.2842132643
  H         4.6464876424        3.0329141859       16.8016678708
  C         3.0516621997        2.0156595087       17.8339318888
  H        13.6270104266        4.1180160907       20.4263626587
  H        14.7018916940        2.9154533721       20.1583385010
  C        14.5768311589        3.3025554461       22.2911587234
  S        10.1171332776       10.2833529342       17.0262129405
  N        10.3690824779        9.8920931017       15.4632887807
  C        10.7862360995        7.7585267239       14.2453013614
  H        10.9348175237        5.6559980037       13.4857096565
  C         4.1297512109        1.2759407120       35.5352710858
  N         4.2824729370       -0.0403763948       35.6614590546
  O         5.0572565102       -1.9238582432       34.5425229563
  H         2.3793230837        2.4852994583       17.1359160914
  H         2.6207404363        1.9771245872       18.8121965113
  C         3.1714092089        0.5858877459       17.1773930882
  H        15.2205788001        4.1404934835       22.2675974125
  H        13.8100040195        3.5662871357       22.9583196444
  C        15.2861338720        2.0535965449       22.7784826153
  C        11.0901566450        8.4728597088       12.9652501463
  S         3.6924593806        2.2414915440       36.9255249647
  C         4.2967874020       -0.7407668545       36.9798788554
  H         2.4586327121        0.3760126951       16.4162454367
  H         4.1221683760        0.4739202257       16.6897158107
  C         3.1998156595       -0.6144936157       18.1143071371
  H        15.4450951966        1.3128158793       22.0627801001
  H        14.5610381485        1.6595707799       23.4699927893
  C        16.6038878130        2.3585912353       23.4696161015
  H        10.7281175613        9.4582688709       13.0266466994
  C        11.7509700096        8.0915463682       11.8093318348
  H         3.6316771297       -0.2565949106       37.6375414967
  H         3.8787275523       -1.7271803858       36.8997394640
  C         5.7405295765       -0.8180565088       37.5519446311
  H         3.8315901989       -0.4175275517       18.9842233362
  H         3.6317305230       -1.5514371384       17.7034720577
  C         1.8223412471       -1.0132538126       18.6794412003
  H        16.3558214188        3.1833714713       24.2077038246
  H        16.9314280568        1.4676362922       24.0335207707
  C        17.6770587289        2.8111462659       22.5291383724
  S        12.3362561501        6.5706651512       11.3266557928
  C        11.7916523492        9.1751384332       10.7467752242
  H         5.8250993676       -1.6275136310       38.2442536128
  H         6.5670278502       -0.8168319364       36.8016631490
  H         5.9139884349        0.0514683135       38.2163724163
  H         1.9365677165       -1.4525249990       19.6678808941
  H         1.5167378158       -1.8190241714       18.0137449544
  H         1.0053099525       -0.1493211094       18.6282121123
  H        18.6378257550        2.7765033503       23.0272372765
  H        17.6635787846        3.7873231804       22.1236818692
  H        17.6628835745        2.1631220306       21.6210673108
  C        12.5204064810        7.3200060300        9.7323005234
  N        12.3779527107        8.6562542771        9.6839958395
  O        11.3396141016       10.3264540489       10.8368386911
  S        13.3275767894        6.4459540935        8.4350075281
  C        12.5364191993        9.3553308627        8.4358884755
  H        12.4784189646       10.3727608086        8.8320504661
  H        13.5297989264        9.2942983980        8.0424717017
  C        11.3891873322        9.1139927252        7.4069087916
  H        11.5356230155        8.1531939836        6.9703833189
  H        10.3934478840        9.2637732250        7.8535147178
  H        11.4188074803        9.7877841213        6.5382169115
  H        21.3988479105       11.6581703321        3.4078687421
  C        21.8834488853       10.6840790405        3.5002481169
  H        21.1270345976        9.8807801064        3.5335855332
  C        22.7315276185       10.5815907980        4.7901014047
  C        22.5549976942       10.3530686963        2.1101611046
  C        21.9327449235       10.8344826560        6.1097301528
  H        23.1555565171        9.6206475156        4.8948320432
  H        23.5650832086       11.3210069417        4.6593593139
  H        23.1262785203       11.1355602258        1.7676917984
  H        21.6947592989       10.2274348924        1.4469734107
  H        23.1693631804        9.4739718968        2.3461057561
  C        21.3757088782        9.5289259164        6.6336957999
  H        22.6178886536       11.1418966440        6.9138938583
  H        21.2188702914       11.6218532317        5.8363422171
  C        20.3979208086        9.6434995440        7.8419920470
  H        22.1818528858        8.8962865675        6.9639251347
  H        20.9804073876        8.9265684129        5.8132257661
  C        19.2851511933       10.5862305022        7.6070744184
  H        21.0298659880       10.1015059595        8.6720047642
  H        20.0582118498        8.6886185506        8.2182889894
  C        18.0847422306        9.8637573844        6.9370606765
  H        19.0460269579       10.9234434682        8.5840053031
  H        19.5038478831       11.4772856107        7.1330702717
  C        16.8107258371       10.7183436580        6.7424160531
  H        17.7341978886        9.0084698818        7.4947644114
  H        18.3380182018        9.4755982919        5.8980453722
  C        17.1565975129       12.0494956708        6.0279455246
  C        16.4092279323       11.4661101308        7.9678847460
  C        15.6626100328        9.9839291265        5.8928082509
  C        17.0235950518       13.1712428596        6.8331824384
  C        17.6195744970       12.3945992980        4.7575376123
  C        16.5340059161       12.8007489454        8.0770098466
  C        15.9258906553       10.8179713003        9.1086665616
  H        16.1331242238        9.6518094606        4.9630057197
  H        15.2705304631        9.1687293736        6.4862016519
  C        14.5111947504       10.9737478311        5.6964265230
  S        17.5239236900       14.6260601612        6.0383381520
  C        17.9332797789       13.7130724577        4.6784154034
  H        17.6562720089       11.6131755201        4.0381092699
  C        16.2051031170       13.4475364604        9.2875214736
  H        15.8414497142        9.7310857197        9.0097879086
  C        15.5950289155       11.4302108039       10.3358792749
  H        14.7854805739       11.9957080682        5.3935881157
  H        14.0687556417       11.0367833519        6.6860066728
  C        13.4443805836       10.4898295279        4.7492958805
  C        18.2404483177       14.3572746864        3.3738146715
  C        15.6896859302       12.7920497534       10.4405627099
  H        16.3217548826       14.5185288846        9.3348458398
  C        15.1363827620       11.0910086751       11.5958477028
  H        12.4739675399       11.1029802581        4.8290298564
  H        13.2404578682        9.4680093625        4.9143222231
  C        13.9365098782       10.5056639077        3.2831571607
  C        18.2656544655       15.7632347696        3.0914155572
  C        18.6864712371       13.4806705610        2.2401041706
  C        15.4358383282       13.5737540893       11.7103016178
  C        15.1191133551       12.2116052792       12.3967702973
  S        14.7497217875        9.6101763058       12.3181469384
  H        14.8490833271        9.8956316462        3.1593002162
  H        14.3050521906       11.5252701777        2.9854501997
  C        12.7988720472       10.2200398719        2.2615110254
  N        17.9482861369       16.7783086068        3.9878242641
  C        18.4964502051       16.3005753184        1.8063296066
  C        18.9223846473       13.9759666358        0.9515994442
  H        18.6094275111       12.3704645222        2.2974539579
  C        14.1992365579       14.4448605904       11.4592629581
  C        16.7143471539       14.3134620211       12.1965731410
  C        14.8666225263       11.7822712217       13.7154858261
  C        14.5462849022       10.4474977945       13.7836847474
  H        12.3287882399        9.2933399081        2.5448954591
  H        12.0561553369       11.0116346633        2.1643836354
  C        13.4079379053       10.0830995681        0.8489227503
  S        18.0061523218       18.2185923118        3.2303234570
  N        18.4635802531       17.7087876724        1.7481953323
  C        18.7287906808       15.4393700635        0.6533629911
  H        19.1165612536       13.2863250884        0.1168196370
  H        14.3570589054       15.0843122342       10.6079220076
  H        13.8842383953       14.9762046215       12.3175306909
  C        12.9566983099       13.6393019487       11.0780699362
  H        16.8841693233       15.1463805922       11.5191226501
  H        16.4678288152       14.8330878557       13.1001995955
  C        17.8556107536       13.4195374903       12.6045141590
  H        15.0094432059       12.5139050817       14.5171601622
  C        14.2110328303        9.7062831824       15.0305084259
  H        14.1610612178        9.3039973983        0.7654188244
  H        14.0290270989       10.9624978014        0.5899061535
  C        12.2978805860        9.8865031834       -0.1810949587
  C        18.9407130984       16.0296509872       -0.6328601987
  H        13.1037798706       12.9696716937       10.1861461799
  H        12.6475666384       12.9660562318       11.8475968877
  C        11.7135709145       14.5802915195       10.7995833548
  H        18.2046827229       12.8495415412       11.7350786381
  H        17.5432978851       12.7269973997       13.3742070578
  C        19.0387262576       14.1946148261       13.1427532185
  C        14.0141971337        8.3171119068       15.1654987799
  C        14.0594371950       10.4453077619       16.3057632826
  H        11.7534975231        9.0004946432        0.0059588732
  H        11.5615877918       10.6817197022       -0.0832748993
  C        12.7161081892        9.9881458633       -1.6363584265
  H        18.6195442476       17.0942892361       -0.5390538697
  C        19.2189090620       15.4427078387       -1.8431754124
  H        12.0697677354       15.4512434667       10.2885211329
  H        11.2603633555       14.8836749985       11.7381563916
  C        10.6863043965       13.7839372162       10.0843850031
  H        19.5403385651       14.6750541536       12.3163712775
  H        18.7411157984       14.9833995954       13.9450587990
  C        19.9064168728       13.2630548545       13.9561542466
  N        14.1273537479        7.4036648248       14.0880448582
  C        13.6891109229        7.6731547823       16.3531382906
  C        13.7713758118        9.8146905195       17.5256603021
  H        14.3292547415       11.5451562739       16.3728190406
  H        12.6982405687        9.0308770440       -2.1134654012
  H        13.6847853010       10.5470297795       -1.8300100010
  H        12.0129279043       10.5131755813       -2.2504129298
  S        19.4607388325       13.7912282732       -2.2371638683
  C        19.2373765245       16.3464046745       -3.0313679935
  H        10.8994531565       13.6218740783        9.0359627693
  H        10.6045713146       12.7499253282       10.4421613107
  C         9.2176431636       14.2360925089       10.2100212827
  H        19.8185505552       12.2352694095       13.6121446835
  H        19.4832767039       13.1293045624       14.9569678881
  C        21.4339542693       13.6098108136       13.9886309247
  S        13.8892708430        5.9348102142       14.7353029405
  N        13.5545053679        6.3011120995       16.2719294113
  C        13.4766113072        8.3513486273       17.5549444761
  H        13.8071756298       10.4802866596       18.3550246801
  C        19.7015119113       14.3277699618       -3.9226443825
  N        19.5789437329       15.6793190059       -4.1464964921
  O        18.8321354929       17.5110656495       -2.9379411033
  H         8.7947268311       14.0152206696       11.1894260040
  H         9.2450295229       15.3284976787       10.1589161642
  C         8.3563040594       13.6565541994        9.0810614803
  H        22.0325122875       12.8484754749       14.4518023011
  H        21.8226358976       13.7575219601       12.9375809712
  C        21.5591631996       14.9475310242       14.7155734677
  C        13.1158748764        7.6756092539       18.7676638746
  S        20.3014368156       13.3176655841       -5.2482553862
  C        19.6088548242       16.2446862153       -5.4929932848
  H         8.9586183597       13.7498081093        8.1724681567
  H         8.1811323794       12.6449533916        9.3446278049
  C         6.9191944887       14.2481214851        8.9045721877
  H        22.3132796282       14.8278672130       15.4877065471
  H        20.6221147866       15.1807235584       15.1886387608
  C        22.0376477331       16.0915498865       13.8209510115
  H        13.2856926546        6.6662071678       18.6583274750
  C        12.5240843634        8.1687615460       19.9275904565
  H        20.2856070078       15.7208496917       -6.2269514182
  H        19.9228135212       17.3112396090       -5.3550190003
  C        18.0917895726       16.3695409025       -6.0035594256
  H         6.7520763244       14.0642657526        7.8343561171
  H         6.8747566625       15.3135867888        9.0549684652
  C         5.8387675501       13.5956089152        9.8086787042
  H        22.9919674820       15.7230663705       13.2011344031
  H        21.3831092025       16.3206448529       13.0140417686
  C        22.3688869935       17.3154497312       14.7158821681
  S        11.8433060879        9.7719609473       20.1702484160
  C        12.3258209985        7.2532299362       21.0302161668
  H        18.0257681811       16.5248176919       -7.0932116264
  H        17.5788591071       17.2137176248       -5.5181763908
  H        17.5772544956       15.4463298443       -5.7349053167
  H         5.9702485560       14.0052475289       10.8592023871
  H         4.8058978368       13.6653853537        9.3486319111
  H         6.0682336682       12.5643747469        9.9845537665
  H        22.6353527251       18.1694540761       14.0445495559
  H        21.5773348846       17.6964657041       15.4250427619
  H        23.2514084289       17.0156749839       15.2248492920
  C        11.5404075113        9.1404604147       21.8558975636
  N        11.7187955538        7.8550007458       22.0192970570
  O        12.9106487881        6.1658579740       21.0961856425
  S        10.7005095218        9.9670895105       23.0330793539
  C        11.5476707157        7.2353577677       23.3410463689
  H        11.4337349120        6.2233260503       22.9859716482
  H        10.6790621846        7.4486337334       23.9631533895
  C        12.8192384384        7.4005581836       24.1991196887
  H        13.4735805429        8.2693118303       23.8599958336
  H        13.2730026301        6.4485572562       24.2038977063
  H        12.6383202439        7.5202420198       25.2652346564
