352
 i =    16100, time =    16100.000, E =        24.1546196699
  H        12.0828583147        5.9964187392       32.6093824405
  C        11.6396007223        4.9850686143       32.5612716975
  H        12.4048473505        4.2487420856       32.5768047986
  C        10.7283471878        4.8997363457       31.3694037428
  C        11.0504438868        4.6645154946       33.9530503581
  C        11.3154954107        5.3195507076       30.0187329518
  H        10.3408262396        3.8578836103       31.2219104038
  H         9.8483490099        5.5172435905       31.7093242090
  H        10.3336143742        3.7926602469       33.9856038608
  H        11.8541329662        4.3955336710       34.6034364048
  H        10.6197379784        5.6677251566       34.1916096311
  C        10.2403739568        5.4786898595       28.8879289664
  H        11.9146556744        4.5246012448       29.6850686933
  H        12.0475091916        6.1865321807       30.0708337133
  C        10.8107404110        5.4956588724       27.4884036549
  H         9.5966093046        4.6466045300       28.8180203023
  H         9.6116838182        6.2990426431       29.1416812952
  C         9.8453125198        4.8226125227       26.4964796757
  H        11.7651478075        4.9906602480       27.3748462957
  H        11.0979892542        6.5027842154       27.1922029113
  C         8.5111204763        5.6478499110       26.2524193924
  H        10.4127761899        4.7282359625       25.5783683252
  H         9.5750793850        3.8242010733       26.8275465816
  C         7.4033739418        4.9233258683       25.4124801689
  H         8.1481603335        5.8213034786       27.2804022410
  H         8.7580891474        6.6322162362       25.7651814009
  C         7.0441035471        3.4771319863       25.9586627456
  C         7.9450827851        4.3063623749       24.1441696836
  C         6.1202698482        5.7645058730       25.2119017919
  C         7.3032939052        2.4586443576       25.0983217657
  C         6.5162068346        3.0204486172       27.1595383106
  C         7.8612695622        2.9512410359       23.9451053183
  C         8.3531729604        5.0407253906       23.0242782346
  H         6.3642266524        6.7029843259       24.7099109742
  H         5.7961377860        6.0666878002       26.1844155241
  C         4.9082469342        5.0870486808       24.5707220919
  S         6.9764672614        0.9183121070       25.7878692806
  C         6.4389168310        1.6848776866       27.2840559438
  H         6.3011598291        3.7348974660       27.8770993027
  C         8.3316773271        2.4594778505       22.7622698124
  H         8.2609835260        6.0634700443       23.2212928231
  C         8.7555310458        4.4817545923       21.8362345075
  H         5.3530158972        4.8019146667       23.6047368377
  H         4.7612816518        4.0759027230       25.0262710261
  C         3.6124323115        5.8287481547       24.5252482871
  C         6.0926305973        1.0421779468       28.4807684815
  C         8.7890480734        3.1655832320       21.6898498115
  H         8.3158592882        1.3965414771       22.6158435013
  C         9.2439875787        4.9068724624       20.5820059112
  H         2.8545281446        5.3485409460       23.8370162769
  H         3.8658392262        6.8823592007       24.0940949818
  C         2.8716386879        5.9769235913       25.8510626566
  C         6.1293316501       -0.3853053781       28.7346118844
  C         5.5052189576        1.8325740957       29.5476533519
  C         9.3101419445        2.4413118276       20.4193437561
  C         9.5060687546        3.8369818367       19.7494237360
  S         9.5665482458        6.3834247599       19.8316737497
  H         1.9575898111        6.5237141809       25.4639394158
  H         3.5196311627        6.5879015529       26.4709229712
  C         2.4426072848        4.6455058742       26.5342723539
  N         6.4374452715       -1.3499904085       27.7783912548
  C         5.8396505549       -0.9683671663       29.9804218112
  C         5.3111129063        1.2231389037       30.8177389137
  H         5.1174478193        2.8797461898       29.4829509418
  C         8.2693294062        1.5242816394       19.7057149501
  C        10.6002490020        1.6148401166       20.6650589078
  C         9.9591756520        4.2208390808       18.4624362112
  C         9.9931561900        5.5758198264       18.3820805802
  H         1.8240176891        4.0578082520       25.8847894459
  H         3.2281810696        3.9350291879       26.7263551054
  C         1.6782416620        4.9675768135       27.8248450624
  S         6.3963201809       -2.8354800748       28.4585821062
  N         5.9543374287       -2.3861744098       30.0024096168
  C         5.5217098581       -0.2077359756       31.1271455098
  H         4.8556498009        1.8783381656       31.5919590059
  H         8.2349034337        0.5969511609       20.1800299398
  H         8.5707331292        1.3488445733       18.6802309511
  C         6.8787605442        2.1364043546       19.5681860782
  H        11.0720216908        1.3823069060       19.7271044915
  H        10.4217199014        0.6719439894       21.1900255047
  C        11.7476451904        2.3934582775       21.2569746670
  H        10.2275094992        3.5223984305       17.7474783696
  C        10.1858523985        6.3246427230       17.0590856553
  H         0.9210785637        4.1799172758       27.9947748365
  H         1.3033735477        5.9530593356       27.7302648506
  C         2.6758092726        4.9999465948       29.0111484376
  C         5.2208513831       -0.8297955099       32.3064674465
  H         6.9437750058        3.1899021493       19.3482308480
  H         6.3696075449        2.0939344064       20.5566403155
  C         6.0288858697        1.5103407245       18.4384032897
  H        11.5398817179        2.9024014725       22.1962620368
  H        11.9615189553        3.1662121757       20.5059058502
  C        13.0482390631        1.5801499870       21.2786214107
  C        10.1268987422        7.7564296890       16.9519425563
  C        10.2369670041        5.6044481777       15.7543860331
  H         3.3299132554        4.0870916427       29.0072578066
  H         3.1494587261        5.9342128293       28.8886263480
  C         1.9310212006        5.0434605476       30.3200671121
  H         5.3130244154       -1.8755876603       32.2492840229
  C         4.8738687383       -0.4350517617       33.5452380522
  H         5.8047410429        0.4753094165       18.5823021572
  H         6.5466120474        1.4703358067       17.3927348207
  C         4.7585706027        2.2453922758       18.4184339343
  H        12.9871875830        0.8298575398       22.0285433937
  H        13.1131088909        0.9410957180       20.3615397158
  C        14.2339210925        2.5038787959       21.4429240213
  N         9.9073691042        8.6674978683       17.9861555781
  C        10.3727829793        8.3598825168       15.7675344789
  C        10.3348423644        6.2048869037       14.5343248418
  H        10.1261898938        4.4912840985       15.7873141469
  H         1.4379431353        6.0323904790       30.4532434918
  H         1.1408638675        4.2906856772       30.1680736511
  H         2.4677457453        4.8998949823       31.2587523307
  S         4.4331007349        1.1548046469       34.0178927065
  C         4.6873427612       -1.4633874396       34.5859945057
  H         4.8263753789        3.0670347409       19.0966954131
  H         4.6081385465        2.5956008318       17.4236203758
  C         3.5421740986        1.4062340545       18.7267012588
  H        14.0802724776        3.3141350510       20.7338692137
  H        15.1387067544        1.8946345040       21.1352040821
  C        14.5579855112        2.9121347583       22.9090030574
  S        10.0453227662       10.2233724348       17.4800757493
  N        10.3749906122        9.8086835464       15.9405544800
  C        10.6248759061        7.6807561733       14.5464009897
  H        10.4302080971        5.6532990889       13.5720790367
  C         4.0229737670        0.4836046646       35.5277053619
  N         4.2618559290       -0.8375086183       35.6547076606
  O         4.9958097596       -2.6616944248       34.5268458382
  H         2.6779186414        1.9798257610       18.7572211422
  H         3.7152198344        0.8923287918       19.6843851389
  C         3.2557528256        0.3305198492       17.6282812712
  H        15.1168928705        3.8427879644       22.9435673566
  H        13.5933757120        3.0973308760       23.3694070582
  C        15.2401370784        1.8417793961       23.7178815950
  C        10.8513773995        8.5767581431       13.4952624281
  S         3.5813693150        1.2817352367       36.9707126094
  C         4.2038019052       -1.5883660395       36.9113938657
  H         2.8259135067        0.9107800835       16.8156397996
  H         4.2493970999       -0.0018019232       17.1533023191
  C         2.2633414923       -0.7195255757       18.1309612624
  H        14.9809692948        0.8828010142       23.2863755475
  H        14.7417843388        1.8092078411       24.6967718251
  C        16.7767912465        1.8949144602       23.7930973976
  H        10.5884862613        9.6053079229       13.5812932936
  C        11.3118273166        8.3511696739       12.2280302550
  H         3.2509713415       -1.4729132962       37.4464050999
  H         4.0311400430       -2.6578693558       36.7868267681
  C         5.4405143861       -1.3718447416       37.7775614655
  H         1.3077853063       -0.2484298445       18.2943638108
  H         2.5402236744       -1.3318190753       19.0030620488
  C         2.0177666579       -1.8329821101       17.0290890500
  H        16.9983356881        2.8264082003       24.4519097320
  H        17.1877165537        1.0152020678       24.3019162823
  C        17.5180952679        1.8768044167       22.4608242481
  S        11.8478543709        6.8131747984       11.6379267887
  C        11.5198244634        9.4526074987       11.3320682956
  H         5.4166327537       -1.9551952188       38.7164433699
  H         6.4334642446       -1.4525645021       37.3013048384
  H         5.5009060179       -0.3781904384       38.1323748631
  H         1.2755909517       -1.6995405816       16.1933944710
  H         1.7633254740       -2.7076687950       17.5448059474
  H         3.0066749341       -2.0520613940       16.5336754803
  H        18.5983117314        1.7808695075       22.7247048611
  H        17.5557910201        2.8022537539       21.8852492231
  H        17.1876214716        1.0772795601       21.8479527924
  C        12.4349238667        7.6728117888       10.1876173517
  N        12.0962386544        8.9561231271       10.2185382865
  O        11.0035504418       10.5508424045       11.4713033524
  S        12.9753140834        6.8625672713        8.6789113513
  C        11.9406776903        9.7107707412        8.9841808545
  H        11.9942176321       10.7469409185        9.3336943669
  H        12.7431010224        9.5249313177        8.1660050833
  C        10.5923161988        9.4708666401        8.3365262681
  H         9.9129315141        8.8628635937        8.9151173594
  H        10.0730968782       10.4469663246        8.0874905450
  H        10.6786829140        8.9234480718        7.4084046306
  H        20.8257016354       11.6925628905        2.9662830119
  C        21.3299959945       10.7934567718        3.1035755131
  H        20.6446188075        9.9515484121        3.2400810753
  C        22.1967411846       11.0401015456        4.3241774544
  C        22.0071547715       10.5270774030        1.7945534341
  C        21.4083285470       11.1817512362        5.6546374455
  H        22.7863047144       10.1221937181        4.5853976497
  H        22.8042761298       11.8958253498        4.1571809457
  H        21.2730601202       10.5112207654        1.0275770480
  H        22.6559361023        9.6057624680        1.7922845721
  H        22.5763288967       11.4359164084        1.6546482061
  C        20.9855461971        9.8335020156        6.2164147807
  H        22.0450315169       11.6220354162        6.4910277343
  H        20.5380191669       11.8681700327        5.4689028314
  C        20.3659107235        9.9405900296        7.5997528340
  H        21.8583260436        9.1803350491        6.2385206300
  H        20.3861504803        9.3578977998        5.4269938516
  C        19.1351704823       10.8201652053        7.6604070352
  H        21.1082370444       10.3008371857        8.2688053044
  H        20.0928931023        8.9748085820        7.9890777927
  C        17.9255166622       10.1282906926        6.9575782598
  H        18.8965111048       11.0602895003        8.7179215253
  H        19.4681811887       11.7211864259        7.2451789239
  C        16.6816784779       10.9475062947        6.8690512623
  H        17.6877159093        9.2336026718        7.5276481124
  H        18.1653431777        9.9191684304        5.8970781182
  C        17.0524133995       12.3644376018        6.2734523191
  C        16.2063166211       11.6392637548        8.1143189693
  C        15.6742803141       10.2333078391        6.0484063679
  C        16.8783099635       13.4160650543        7.1716356128
  C        17.6791798778       12.8734350519        5.0937648611
  C        16.2931692078       12.9680868823        8.2896287591
  C        15.7429315421       10.9006095741        9.2383767708
  H        16.1053923512       10.1117252740        5.0816291210
  H        15.5223507182        9.2527172912        6.3992101167
  C        14.3487469655       10.9597623048        5.8161177255
  S        17.2598967798       14.9079629991        6.4717719328
  C        17.7373565975       14.2056702882        5.0172051548
  H        17.8944504053       12.2072572856        4.2874170871
  C        15.9199982406       13.5666458620        9.4766061461
  H        15.7178625360        9.8242980736        9.0627298965
  C        15.3560770542       11.4235921233       10.4400972915
  H        14.4963572856       12.0296257490        5.5414117491
  H        13.7902989566       10.8635697559        6.7053189457
  C        13.5204405092       10.2910053688        4.7235025184
  C        18.1406485367       14.9548748373        3.7751477813
  C        15.4737124281       12.7673433417       10.5611013474
  H        15.9940468669       14.6450749776        9.5671475415
  C        14.9551462552       11.0217133511       11.6635200705
  H        12.4854074448       10.5551628678        4.7427423591
  H        13.7996040927        9.3052377839        4.7649156015
  C        13.7843359723       10.7575587267        3.2756240609
  C        18.1095633007       16.3278991057        3.5083315018
  C        18.5951504104       14.2195303123        2.5436056368
  C        15.0009957904       13.4726836948       11.8288399288
  C        14.6936669122       12.1183584049       12.4797939723
  S        14.5771871282        9.4685496765       12.4294826427
  H        14.7850348804       11.1686632173        3.4159956427
  H        13.0721266999       11.5226469879        3.0382533415
  C        13.7984390913        9.5909082195        2.3354740739
  N        17.6440797996       17.2519066568        4.4383516748
  C        18.4833695838       16.9070424990        2.2610870196
  C        19.0293073453       14.7878314592        1.3694972977
  H        18.8079225950       13.2610425515        2.6552079438
  C        13.7789943054       14.3946754621       11.7476585256
  C        16.1359042471       14.2480454179       12.5031628988
  C        14.3171501512       11.6789142359       13.7347679781
  C        14.2164680858       10.3312920527       13.9188775086
  H        14.6593187825        8.9390085251        2.5676243147
  H        12.9272561752        8.9684530808        2.5900913611
  C        13.8834780993       10.1217321407        0.9179186233
  S        17.6798522260       18.7332758252        3.6784605215
  N        18.3986112520       18.3069605161        2.2238187139
  C        18.8616690661       16.1899141207        1.1475242936
  H        19.5482419972       14.1622895772        0.6319348409
  H        14.1882800700       15.1388959668       11.0928959772
  H        13.6301669285       14.9177355178       12.6524826301
  C        12.5335471099       13.7486143676       11.2971967529
  H        16.5815647887       14.8483677893       11.7030009935
  H        15.7563871412       14.8212136400       13.3608742875
  C        17.3795857820       13.4903746019       13.0340022300
  H        14.0631826330       12.3584913985       14.4634018483
  C        13.8116532081        9.6991323678       15.2768474038
  H        14.8695112303        9.9476096688        0.5307544892
  H        13.7383218244       11.1934046410        0.9445456279
  C        12.7345331879        9.5519972572       -0.0011723430
  C        19.0975418949       16.7978586351       -0.1287222383
  H        12.7953229300       13.1446204439       10.3971618658
  H        12.1292186519       12.9448434871       11.9315460425
  C        11.4471509233       14.8477954284       11.1270393127
  H        17.8229953290       12.8237690700       12.3287389803
  H        17.0537284192       12.7807625426       13.7494136724
  C        18.3416286442       14.4236037488       13.6877355684
  C        13.7720963152        8.2964786196       15.3594417947
  C        13.7012083648       10.4531535936       16.5720468452
  H        12.8083316076        8.4978684320       -0.1677013109
  H        11.7079660927        9.7901990339        0.2878264346
  C        12.8193486083       10.2237377872       -1.4567242248
  H        19.1126150545       17.9043228442       -0.0990814211
  C        19.2966852499       16.3594698773       -1.4188852412
  H        11.8300613320       15.4793925086       10.3525803768
  H        11.5476702266       15.6128133249       11.9465558939
  C         9.9999732253       14.3382028637       10.9114227197
  H        18.4358761541       15.3724764561       13.0893909561
  H        17.8739664301       14.6560964241       14.6028303173
  C        19.7309807384       13.8924761833       13.9492181975
  N        13.8611829661        7.3518595460       14.3205065753
  C        13.5439869784        7.6574262524       16.5662059834
  C        13.4113274796        9.8289987392       17.7869366842
  H        13.7552454423       11.5311939841       16.5670258456
  H        12.2979522341        9.7274106950       -2.2371356481
  H        13.8023206691       10.3458943202       -1.7133511363
  H        12.3949969614       11.1790345534       -1.5400942552
  S        19.5423419439       14.8335398619       -1.9426583660
  C        19.3359128982       17.3826762477       -2.5371247364
  H         9.6075247425       13.7140766207       11.7351635587
  H         9.3501798732       15.1981707877       10.8739080473
  C         9.6788168603       13.5388750343        9.6651825701
  H        20.2529439576       13.5194265718       13.0412335368
  H        19.5681998885       13.0207100293       14.5764343658
  C        20.6547591026       14.7939002897       14.7864788482
  S        13.9970674570        5.8586564417       14.9187242535
  N        13.4862628217        6.2566485613       16.3961426727
  C        13.3980237661        8.3463934456       17.7807744551
  H        13.3071100782       10.4554994221       18.6312348032
  C        19.7117721778       15.4674510930       -3.5808484412
  N        19.7396959241       16.7945630549       -3.7114631671
  O        19.3218263619       18.5821733608       -2.3302454281
  H         9.9357219306       14.1614536527        8.8273171049
  H        10.3414981535       12.6810654648        9.5124451040
  C         8.2238701155       13.0871867339        9.6290937374
  H        20.1316867578       15.3969426882       15.4921429622
  H        21.3359442124       14.1846914077       15.2844028189
  C        21.4398683434       15.8032017749       14.0116565312
  C        13.1318612193        7.5651326155       18.8914646121
  S        20.1631515988       14.6015990000       -5.0124053775
  C        19.8433842974       17.5301537658       -4.9522926895
  H         8.1298106770       12.2557122129        8.8930171538
  H         7.8214632788       12.7539321343       10.5730074224
  C         7.2624683052       14.1747745895        9.2306699337
  H        20.7434628910       16.3443082412       13.3230853971
  H        22.2925694203       15.3292804332       13.4303757072
  C        22.1624776252       16.8585677870       14.9156122054
  H        13.6079614321        6.5941634855       18.7488672461
  C        12.5347109172        7.7534724305       20.1355902850
  H        20.5919378481       17.1972520424       -5.5609838331
  H        20.1577220776       18.4946167473       -4.6963494176
  C        18.5510420135       17.5185919569       -5.7710498459
  H         7.1191390673       14.1252032829        8.1448209172
  H         7.5054616917       15.1673846133        9.4557814474
  C         5.8862959340       13.9857485652        9.8565122864
  H        22.6484619222       16.5069824958       15.8327316607
  H        22.9646521431       17.2754345314       14.3505384097
  C        21.2601448321       18.0745816544       15.3102797086
  S        11.7315598447        9.1907589794       20.7027831696
  C        12.6665614807        6.6757111981       21.1725602040
  H        18.6315594902       16.7095667574       -6.4764126666
  H        18.5173176560       18.4005548346       -6.3644768397
  H        17.6996304786       17.4126283478       -5.1641435500
  H         5.5651072128       12.9570797414        9.8459445306
  H         5.9690348307       14.3348524278       10.8638947607
  H         5.0316601741       14.4676197556        9.4700182051
  H        21.8251426335       18.7579427936       15.9371084936
  H        20.8629014964       18.6143924442       14.4356478399
  H        20.3225607872       17.8170122710       15.7142851265
  C        11.5681906647        8.2737975373       22.2002587139
  N        11.9342165128        7.0360986589       22.2286915636
  O        13.1583066385        5.5431408886       20.9704750565
  S        10.9824167963        8.9941567933       23.6306585384
  C        11.8210851703        6.2577960241       23.4388264081
  H        11.9166539727        5.2378626263       23.1991179830
  H        10.8172432426        6.2810703783       23.9682306681
  C        12.9955866759        6.7023728459       24.3279331763
  H        12.6653773444        7.5323592828       24.8783557200
  H        13.8762199486        6.9401261567       23.6345305039
  H        13.3293841825        6.0233819761       25.1672119159
