352
 i =    34100, time =    34100.000, E =        24.5180761388
  H        12.2788690061        6.5097532829       32.8081935740
  C        11.6702147258        5.6260984767       32.8021671365
  H        12.4171230663        4.8544028078       32.7743702344
  C        10.7345947934        5.5962931807       31.6080853436
  C        10.9470805078        5.4292102472       34.1431776467
  C        11.2972037205        5.8539668030       30.1769857440
  H        10.1710109547        4.6787969855       31.5822104632
  H         9.9931455430        6.3683892519       31.7302814925
  H        10.5555119157        4.4597321940       34.3286503488
  H        11.6857687143        5.5541253753       34.8930928263
  H        10.2279138871        6.2087432783       34.3795141460
  C        10.3252538883        5.5983191484       29.0236408842
  H        12.1431417607        5.2358692594       30.1115326510
  H        11.6828657836        6.8705991903       30.0952045087
  C        11.1381842334        5.4368710160       27.7527733051
  H         9.7865043665        4.6766866544       29.1866276299
  H         9.6328814508        6.4584802826       28.8924775129
  C        10.2831835435        4.9716474461       26.5184402152
  H        11.9676021758        4.7699432620       27.9478228203
  H        11.6081878948        6.3951187907       27.4802721749
  C         9.1031337819        5.8474441637       26.1727669941
  H        10.9567514003        4.8060668155       25.6846844679
  H         9.8115180285        4.0503513907       26.8693348823
  C         7.9388590994        5.1930044638       25.3976486140
  H         8.7700145158        6.3195501193       27.1261292695
  H         9.5366291099        6.6534641589       25.5904007754
  C         7.4967191695        3.8673316617       26.0181705781
  C         8.3464700735        4.5393794158       24.1190706438
  C         6.7756232666        6.2021837402       25.1342126580
  C         7.6922510286        2.7664194054       25.1812831172
  C         6.7419379389        3.5614368242       27.1782953919
  C         8.2093216538        3.1971328676       23.9404740944
  C         8.7563195311        5.2144213673       22.9695331912
  H         7.0685470594        6.9476413065       24.5228247024
  H         6.3747849930        6.5808018955       26.0491929878
  C         5.5729734530        5.5256344196       24.4363966259
  S         7.1116900511        1.3400977892       25.8689044322
  C         6.4988650376        2.2151524643       27.2659455290
  H         6.6038053199        4.3321383986       27.8898515661
  C         8.5241107365        2.6137902420       22.7200972839
  H         8.7256862753        6.3282472568       23.0091237865
  C         9.0316677380        4.6469492199       21.7674642215
  H         5.9533788503        5.0296779093       23.4831422786
  H         5.2685131120        4.7340776923       25.1051680299
  C         4.2901155188        6.4442739444       24.2945758425
  C         5.9626885798        1.4842221509       28.4685407067
  C         8.9338202959        3.3215213399       21.6209165135
  H         8.3997296474        1.5579158942       22.5668890841
  C         9.3059919999        5.0752230502       20.5268089729
  H         3.6417001574        6.0460517050       23.5500916654
  H         4.5343562750        7.4490916400       23.9379246718
  C         3.5208561640        6.6095128439       25.6760166449
  C         5.9770942623        0.1090646689       28.8150127805
  C         5.5278769929        2.3359521346       29.6087904943
  C         9.1908270593        2.6169025532       20.2944357386
  C         9.4124815466        3.9497216698       19.6275477001
  S         9.6112825074        6.6038981361       19.7954028430
  H         2.8127320937        7.4071964264       25.4531435939
  H         4.2083258093        7.1074251003       26.3789493916
  C         2.7152695547        5.3205741337       26.2139703676
  N         6.4387228897       -0.8681964388       27.9393100062
  C         5.8428696160       -0.3844166005       30.0971570796
  C         5.2398883271        1.8681616681       30.8950132012
  H         5.5191638421        3.3677636948       29.4708245035
  C         8.0017266175        1.8246656669       19.6821847516
  C        10.5234553499        1.7741142732       20.2511673996
  C         9.7337518267        4.4358448336       18.3486878908
  C         9.8412234024        5.7997679584       18.2839116257
  H         1.9892284344        5.0349655957       25.4218364138
  H         3.3212541049        4.4185844774       26.5085207008
  C         1.8532332848        5.4655133282       27.4164558774
  S         6.4913037643       -2.3310237149       28.6314458474
  N         6.1197922316       -1.7522187720       30.1348039506
  C         5.4341644326        0.4155151263       31.1917484810
  H         4.9744620022        2.6056020954       31.6469279912
  H         7.9003508011        0.8810370370       20.1713492222
  H         8.1451807254        1.4441424528       18.6736056995
  C         6.5896790530        2.5254818539       19.7281140415
  H        10.6083498875        1.4825274059       19.1923518504
  H        10.4484652532        0.7322539356       20.6450052871
  C        11.7520155734        2.4399832119       20.9738237450
  H         9.8496345421        3.6781774997       17.5984921967
  C        10.1021726204        6.4846347799       16.9912312914
  H         1.4012709381        4.5834807904       27.6869416224
  H         1.0389463683        6.0936506307       27.1440561169
  C         2.4767534319        6.1350342994       28.6138615428
  C         5.3799210198       -0.2888007001       32.4501308310
  H         6.6617286264        3.5515936294       19.3763209228
  H         6.2421242799        2.6039923615       20.7727784851
  C         5.6497459070        1.7692410946       18.7474934066
  H        11.6016971385        2.7158369544       21.9953338622
  H        11.9404659994        3.3129483052       20.3279579143
  C        13.0927018613        1.6429323742       21.1855068926
  C        10.1640067299        7.8690088943       16.8654616576
  C        10.2347404679        5.7130486535       15.7558898350
  H         2.7652319257        7.1081253101       28.3545561775
  H         1.6636097881        6.2345048549       29.3274213194
  C         3.6295955149        5.3271398459       29.1818101858
  H         5.5295431950       -1.3446506005       32.3794081570
  C         4.9395795922        0.0994784222       33.6595735854
  H         5.2903256812        0.9681942389       19.2460510309
  H         6.1756447313        1.4300140917       17.8522165835
  C         4.5225210640        2.6911403138       18.2778343551
  H        13.0501397515        1.0613728024       22.1352983161
  H        13.1950957512        0.9510721110       20.3587705180
  C        14.2319364652        2.5864230884       21.2533633853
  N         9.9769188070        8.8275356965       17.8888685635
  C        10.3531514276        8.4907789400       15.6461880332
  C        10.4675407136        6.3103666804       14.5199162996
  H        10.1658913741        4.7016885157       15.8651298019
  H         4.5723087295        5.8960434915       29.2034679897
  H         3.3480682787        4.9833866188       30.2158482196
  H         3.7733402800        4.4377639698       28.5232566538
  S         4.5498480397        1.6677718104       34.0681164119
  C         4.7290896538       -0.9196094708       34.7367596179
  H         4.4472294826        3.6463079010       18.7163683642
  H         4.6592198149        2.8088550637       17.1905261130
  C         3.1436441391        1.9995199132       18.4368593583
  H        14.0137760259        3.4697755830       20.6487032910
  H        15.1716710003        2.1541044587       20.9403968367
  C        14.5087903459        3.1301399605       22.6229409656
  S         9.9497965876       10.3118909551       17.2885937593
  N        10.2681537263        9.8926741346       15.7653865382
  C        10.6003180953        7.7772075849       14.4357801020
  H        10.5980335361        5.6074128069       13.6914156220
  C         4.2768936606        1.0952703090       35.7227901610
  N         4.4087240335       -0.2864592391       35.9388239114
  O         4.9345919082       -2.1032200995       34.6406698679
  H         2.4042040863        2.8028527215       18.1555733700
  H         3.0135398824        1.7255483521       19.5112952523
  C         2.9260861035        0.6837222490       17.6327669317
  H        15.0920229969        3.9822525912       22.5536293000
  H        13.5319755770        3.3289728235       23.1443920101
  C        15.3057650586        2.2172604910       23.5494587907
  C        10.9153475392        8.5727904400       13.2482144817
  S         4.0815676883        2.1558160166       37.1107911745
  C         4.4156455202       -0.8196764668       37.2766231052
  H         2.5939403300        1.0153725506       16.5880265095
  H         3.8435480563        0.2841646488       17.3527307347
  C         1.9928606954       -0.2614029980       18.3843114555
  H        15.1421614796        1.2426763379       23.1517271514
  H        14.8467627196        2.2903207679       24.5858888786
  C        16.7710141059        2.5386721453       23.7598639897
  H        10.8453770711        9.6414543982       13.5043820705
  C        11.3990569723        8.2023537529       12.0239750590
  H         3.6549530761       -0.3837099420       37.9820312862
  H         3.9212426124       -1.8155320254       37.2625390491
  C         5.8571736534       -0.9993315518       37.8691027037
  H         1.0259234124        0.2742013818       18.5521559349
  H         2.4548655628       -0.3529827182       19.3816002375
  C         1.8431076535       -1.6635888208       17.7934303791
  H        16.9294212377        3.6206306871       23.9713022086
  H        17.0841905476        1.9681196806       24.6671521423
  C        17.7142818774        2.3659522573       22.5774056544
  S        11.8758188412        6.5998587991       11.5275684346
  C        11.6714932490        9.3028917107       11.0776066353
  H         6.1385559516       -2.0152149112       38.0951877288
  H         6.5910371262       -0.6549506885       37.1731618223
  H         6.0784560316       -0.3628980200       38.6922793727
  H         1.4466124332       -2.3790382295       18.5076620616
  H         2.8239040438       -2.0462605474       17.5558272258
  H         1.1430137504       -1.7435117953       16.9544669424
  H        18.6796108906        2.2588025409       23.0479258893
  H        17.7086019398        3.2916374772       21.9997094987
  H        17.3433532723        1.5146831679       22.0148506640
  C        12.4696855975        7.4018556351       10.0491931394
  N        12.2751901915        8.7822263682       10.0112299373
  O        11.4747170487       10.4866717268       11.3189097432
  S        13.2112226925        6.6515275838        8.6032487855
  C        12.4294801584        9.5958488692        8.7290886392
  H        12.9329138547       10.5335625435        8.9806620363
  H        13.0641139423        9.1765581754        8.0287235765
  C        11.1244570307        9.8040732222        7.9174268634
  H        10.4339985842        8.9785532280        7.7467156584
  H        10.5207082003       10.5430329704        8.4836891077
  H        11.3851825191       10.3032637161        6.9370883299
  H        21.5848710212       11.9068092287        3.4257886166
  C        22.0333784107       10.9366267889        3.5160149327
  H        21.1884463212       10.2664402589        3.5879482879
  C        22.9138838205       10.8953163558        4.7562307074
  C        22.7351338639       10.4659014258        2.2265390855
  C        22.1825513769       10.9602840389        6.1118084799
  H        23.5417686136       10.0629618633        4.9610690484
  H        23.5384221994       11.7320778984        4.7695639715
  H        21.9477611343       10.3328076458        1.4595051173
  H        23.1756904251        9.4697856433        2.3775081013
  H        23.4999241685       11.1197747161        1.9794378471
  C        21.4006711035        9.6967200971        6.4003082005
  H        22.9321017917       11.2491986605        6.8908231765
  H        21.5092731711       11.7292861924        5.9469786706
  C        20.5506421360        9.7745871426        7.6262509119
  H        22.0623873243        8.8364612704        6.3111298167
  H        20.8044401362        9.6524992595        5.4791898239
  C        19.3076851406       10.6248222432        7.5501409517
  H        21.0485405142       10.3042692458        8.4642378872
  H        20.2755823665        8.7996870532        8.0747143391
  C        18.0214318288        9.8054325796        7.1832586376
  H        19.1578788422       11.2250625953        8.4419753549
  H        19.5519850648       11.4187062889        6.7601269407
  C        16.7282025408       10.6477569126        6.8836375553
  H        17.8275809660        9.2091332342        8.0911258573
  H        18.2581757880        9.1847694450        6.3258586628
  C        17.1645074750       12.0347976266        6.1975810774
  C        16.3211455407       11.5106102164        8.0443913745
  C        15.6264018951        9.8448171685        6.0403792394
  C        16.9260547459       13.1464776539        6.9744130958
  C        17.8338477814       12.3976919531        5.0346190308
  C        16.3976417419       12.8143897148        8.1939987816
  C        15.9050438464       10.8543811522        9.2063169726
  H        16.0853333596        9.4297232814        5.0860392894
  H        15.2068281424        9.0510905835        6.6468977467
  C        14.4595799169       10.8161898953        5.6403130288
  S        17.2265380592       14.6711863865        6.1775746925
  C        17.9781458148       13.8095326310        4.8582202075
  H        18.0859733163       11.5513362398        4.3858594850
  C        16.0489454224       13.4873747565        9.3326693425
  H        15.8479842415        9.7894169673        9.2011161269
  C        15.4244435879       11.4864217517       10.3122294186
  H        14.7839560049       11.6737074020        5.0959528646
  H        13.9026331693       11.0821814688        6.5343925152
  C        13.4297016597       10.1506588994        4.7392886258
  C        18.4631757554       14.5115704735        3.6198627089
  C        15.4762408322       12.8404102635       10.4270624796
  H        16.0494758248       14.5815463855        9.3314549905
  C        14.9324502787       11.0726975608       11.5203295258
  H        12.4292328697       10.6271817399        4.8364359683
  H        13.3158447909        9.1161644063        5.0463066503
  C        13.9467130702       10.3517021427        3.2643513340
  C        18.3367097543       15.9281129686        3.4042163066
  C        18.9862200592       13.6815854748        2.5408308003
  C        14.8587131104       13.5167781409       11.6228157355
  C        14.5822679491       12.1435528182       12.2694126192
  S        14.7152381889        9.4987290335       12.2669418945
  H        14.7807144062        9.6949665899        3.2176069151
  H        14.2779994662       11.3460635533        3.1334202353
  C        12.9350576815        9.8488354591        2.1742346567
  N        17.9293383506       16.8964117109        4.3070203302
  C        18.7290063819       16.4672835352        2.2378089087
  C        19.3177578039       14.2192887176        1.3104065375
  H        19.1907755441       12.6555317290        2.7609904666
  C        13.6213271455       14.3714917460       11.3159460490
  C        15.8786505686       14.3642519736       12.3195984786
  C        14.0745573770       11.7230461505       13.5321625746
  C        14.2103990759       10.3827279182       13.7303763128
  H        12.7962620183        8.7726593038        2.2237312112
  H        11.9589266484       10.3768730007        2.2880476198
  C        13.4681334342       10.2009002578        0.7605780989
  S        17.9246358552       18.3404118610        3.5653293257
  N        18.7517206890       17.8887011149        2.3042079382
  C        19.0800585175       15.6916672249        1.0807551357
  H        19.3904459841       13.4669884196        0.4838944388
  H        13.8525780730       15.0039479336       10.4256623999
  H        13.4035609104       15.0278314198       12.2066527445
  C        12.3001050793       13.6366189174       11.0392644477
  H        16.1871064438       15.1772923516       11.7206956216
  H        15.4247222152       14.9290301629       13.1113063850
  C        17.0960448347       13.6084768920       12.7469967646
  H        13.5999067099       12.4177655618       14.2135367013
  C        14.0323955341        9.7101837252       15.0486684330
  H        14.1162142716        9.4075287151        0.4776455908
  H        13.9739762920       11.1769742615        0.9377084940
  C        12.2762658996       10.2921898922       -0.1693148885
  C        19.3504482253       16.3144140430       -0.1654882511
  H        12.4687544175       12.9414100584       10.2673596919
  H        11.9020762422       13.2452944289       11.9402098733
  C        11.2056572672       14.5227895187       10.6157620260
  H        17.3287683803       12.8830537383       11.9603891631
  H        16.9232771603       12.8517117533       13.5026422658
  C        18.2577404623       14.5600598968       13.0550494989
  C        13.8685272103        8.3330357964       15.3045426397
  C        13.6815321420       10.4989168584       16.2727105195
  H        11.6913279295        9.4044441778       -0.1223364722
  H        11.4772317690       11.0032112923        0.1241891158
  C        12.6321450856       10.7334117255       -1.5844763525
  H        19.3997738903       17.4017913470       -0.0733454802
  C        19.5959243229       15.8906188880       -1.4333969244
  H        11.4719385988       15.1656560579        9.7312875191
  H        10.9728532571       15.2805554974       11.3918385423
  C         9.9087398565       13.6797645356       10.1367796041
  H        18.8306539350       14.8222205272       12.1707118153
  H        17.8224613403       15.5004125172       13.4155828385
  C        19.2722433069       14.0258176295       14.0992362217
  N        13.9384636083        7.3588542852       14.2970114071
  C        13.5414905590        7.7541432386       16.5258282265
  C        13.4685266049       10.0070842489       17.5170254275
  H        13.6474086009       11.5420233333       16.1269599353
  H        13.1368160889       11.6934161503       -1.5436469581
  H        11.7217062045       10.7793634055       -2.1658806532
  H        13.2541131391       10.0141842866       -2.0744775848
  S        19.6535478295       14.2940224657       -2.0502148845
  C        19.7356253722       16.9280036296       -2.5055244436
  H        10.2318152466       12.8407186870        9.5290668305
  H         9.5843181469       13.2128233243       11.0795467734
  C         8.6876352762       14.4829444192        9.6003389839
  H        19.5819216452       13.0755242749       13.7612222442
  H        18.8835016020       14.0055695768       15.1191608081
  C        20.4202451640       14.9640955884       14.3412827350
  S        13.9317440707        5.8758503623       14.9749039642
  N        13.7053814930        6.3450533158       16.5228731556
  C        13.3649720340        8.5385366445       17.7028001574
  H        13.2677608787       10.7216396091       18.2876685528
  C        19.8015326912       14.9085944684       -3.7032451532
  N        19.9011424051       16.2666852268       -3.6900779257
  O        19.5138089186       18.1319820160       -2.3631917932
  H         8.5128503855       15.0999477071       10.5294310243
  H         9.1013287964       15.1290802914        8.8246731995
  C         7.6072269646       13.4500972572        9.0418172591
  H        21.1505268987       14.6171224495       15.1055979418
  H        21.0550760291       15.0396366355       13.4673820309
  C        20.0303488714       16.3406022706       14.9234246398
  C        13.1665745930        7.8305351411       18.9184785942
  S        20.2125296134       14.1671375970       -5.2458833510
  C        19.9277318773       16.9990048171       -4.9791712781
  H         7.8500480786       13.0467443920        8.0524810559
  H         7.5481688565       12.6110380084        9.7266788127
  C         6.2964779739       14.2309673894        8.9816121812
  H        19.1399326177       16.3276157063       15.5144599069
  H        19.6778006618       16.9029174208       14.1072391784
  C        21.2112173439       17.1702464596       15.4449555355
  H        13.2944098592        6.7067530835       18.8583297177
  C        12.6928617119        8.1887977987       20.2151629620
  H        20.7186715285       16.6611095348       -5.6266565928
  H        20.1341212221       17.9954684679       -4.6550063724
  C        18.5429466284       16.8837489449       -5.6430396780
  H         5.7390104260       13.9860809430        8.0594090285
  H         6.4470972274       15.3226817400        8.9237022834
  C         5.5132783304       13.9335370605       10.3143990036
  H        20.8978113287       18.1847333827       15.5439259640
  H        21.4939467804       16.7212674031       16.3798816758
  C        22.4028398554       17.2047410472       14.4079045902
  S        12.2873226587        9.7477792365       20.7351247288
  C        12.4698104755        7.1202738199       21.1603977119
  H        18.2766142306       17.8093792309       -6.1260071658
  H        17.7800998303       16.7746141076       -4.8570200250
  H        18.4393861989       16.0102316875       -6.2805132022
  H         6.1463864720       13.9125261934       11.1490890101
  H         4.8763310069       14.8003343389       10.5185654407
  H         4.8106758331       13.0660248079       10.4009474864
  H        23.2013828732       17.9283564525       14.6965498127
  H        22.9142093480       16.2071421020       14.3591558904
  H        22.0996578628       17.4225773137       13.3900666132
  C        12.0148902818        9.0277559495       22.3144731560
  N        12.0024243641        7.6734518485       22.3253182790
  O        12.6701021159        5.9265357493       20.9964886705
  S        11.2197664853        9.8337099219       23.7042602249
  C        11.8216524538        6.8910370889       23.5557386850
  H        11.5517163285        5.8803866637       23.2404300559
  H        11.0667821449        7.2021905152       24.2711160411
  C        13.1665057312        6.5267512576       24.2322565640
  H        13.6652287312        5.6409551460       23.8679989705
  H        13.1226037787        6.4792705175       25.3074095695
  H        13.8401058973        7.3531632281       24.1307264610
