352
 i =    24900, time =    24900.000, E =        25.5249834855
  H        11.7850966989        7.0759810045       32.7459646636
  C        11.4938919687        5.9922620703       32.5132194758
  H        12.4655622920        5.5430830284       32.3655977872
  C        10.5820335557        5.7912753616       31.3206968856
  C        11.0515588141        5.3497003108       33.8031746257
  C        11.2198725645        6.0394391465       29.9527714644
  H        10.2611030674        4.7925825676       31.3733371073
  H         9.6897486920        6.3671272316       31.6010454523
  H        10.7280046492        6.2271158492       34.4386088470
  H        10.2041534348        4.7124912813       33.5301619440
  H        11.7080570954        4.8894016895       34.5074854621
  C        10.1517539957        5.9299753129       28.8162899124
  H        11.9003134731        5.1538616342       29.8912274029
  H        11.9163547235        6.9073611890       29.9663347137
  C        10.7847520376        5.7393612710       27.3652181079
  H         9.3439150917        5.1936670840       29.1298774416
  H         9.7484990442        6.9365176472       28.8257801071
  C         9.6916211348        5.0100138299       26.5665221414
  H        11.5194224699        4.9665453560       27.3861943242
  H        11.0275927230        6.6237476394       26.7612969849
  C         8.5301893878        5.9252882903       26.1008363341
  H        10.1082715038        4.5830442940       25.7149315975
  H         9.3722728260        4.1219158255       27.1639419884
  C         7.2900099740        5.2137106944       25.4028956335
  H         8.1200508019        6.2850088657       27.0728626490
  H         8.8772158099        6.7750544136       25.5513898820
  C         6.7633144438        3.9302158906       26.0971177903
  C         7.7441155094        4.4361209744       24.1817907147
  C         6.0240637159        6.1811715436       25.2498056929
  C         6.9593788773        2.8107820140       25.3288644355
  C         6.2946812311        3.6260378890       27.4218498489
  C         7.5051495826        3.1413413083       24.1167206198
  C         8.3333764717        4.9751797879       23.0767344943
  H         6.2253887819        6.9319764865       24.4756226273
  H         6.0003029465        6.6939878962       26.2329369798
  C         4.6358309564        5.4213508410       24.9741626242
  S         6.3122851047        1.3682252831       26.1029815883
  C         6.0781384592        2.2572457180       27.5411178817
  H         6.1899745469        4.3890665277       28.2515455861
  C         7.8580172535        2.4287061163       23.0066830041
  H         8.5179927567        6.0420882487       22.9778138217
  C         8.5502802463        4.3143434243       21.9549132456
  H         4.6989494875        4.7824774980       24.0512869119
  H         4.5392888589        4.6649466345       25.7786270919
  C         3.2795269719        6.2093371351       24.9485115756
  C         5.6913031395        1.5176358813       28.8196631356
  C         8.4941265539        2.9700767398       21.8422628137
  H         7.7227587330        1.3073248176       23.0301872282
  C         8.9937452925        4.6965921648       20.7135171319
  H         2.5487689160        5.6958846382       24.3145751303
  H         3.5367709588        7.1544996610       24.5206317549
  C         2.8324504211        6.3612713534       26.3921051104
  C         5.7828259635        0.0957413233       29.0345237753
  C         5.3642115571        2.3545148089       29.9768265728
  C         8.9202621225        2.2257875746       20.6186621355
  C         9.1744641396        3.5942928755       19.8596660900
  S         9.2735487082        6.1988152184       19.9760439203
  H         2.1974756202        7.2460219777       26.4743565637
  H         3.6900060176        6.5136672050       27.0388800518
  C         2.0770167964        5.1470448302       26.9876797628
  N         6.1148830299       -0.9426212553       28.1269503628
  C         5.5647929865       -0.5035412022       30.2773374606
  C         5.1954985835        1.7451642064       31.2245056281
  H         5.2790698631        3.4275638498       29.9661983793
  C         7.8254145975        1.4469790812       19.9401333211
  C        10.2460420060        1.4258547734       20.7431444491
  C         9.5974177510        3.9961999667       18.5862838051
  C         9.7630182724        5.3491532652       18.4537127868
  H         1.4260694609        4.7268718661       26.1945369126
  H         2.8751613713        4.4323920913       27.2606248669
  C         1.2088484822        5.6016799302       28.2203595446
  S         6.2508523532       -2.4307555968       28.8502667749
  N         5.8684667763       -1.8634942419       30.3100354231
  C         5.2637531403        0.2316182002       31.3955888785
  H         5.1443330779        2.3568256801       32.0652498540
  H         7.5278141466        0.6939046284       20.6599292698
  H         8.1423876473        0.9623730620       18.9916805620
  C         6.6167312935        2.2847304704       19.5579333816
  H        10.3041085910        0.8937413315       19.8106664821
  H        10.1281022023        0.6294636375       21.4687140242
  C        11.4435254053        2.3180067214       21.0162472648
  H         9.6595605693        3.2003898143       17.8406839778
  C        10.1149936857        6.0593936659       17.1499784875
  H         0.5525947866        4.7184687459       28.4392851458
  H         0.5010607061        6.3567454553       27.9338966771
  C         1.9272751265        5.8645637949       29.5424009581
  C         5.1353736242       -0.4414662729       32.6160583632
  H         6.8552120036        3.1446418123       18.8867914379
  H         6.1377379116        2.7473908185       20.4068616814
  C         5.5117464895        1.4153813706       18.9103089523
  H        11.3510805586        3.1442918799       21.7406120497
  H        11.7431180483        2.7329034402       20.0665014248
  C        12.6584670592        1.4613379051       21.4911917934
  C        10.1568917973        7.5309393892       17.0533955158
  C        10.3061680686        5.3044771372       15.8891789851
  H         2.8328276565        5.1846937582       29.5715340179
  H         2.4446890471        6.7849437139       29.5867473544
  C         1.0702243212        5.6908891524       30.8560292389
  H         5.3025740054       -1.5032890380       32.6638508338
  C         4.9079384839        0.0227296133       33.9014379439
  H         5.3122174542        0.4705423499       19.3418194380
  H         5.8488958633        1.1730537673       17.8155284710
  C         4.2885088585        2.2989367559       18.6919807407
  H        12.5025966112        1.1705065694       22.5222701233
  H        12.8707737766        0.6077849224       20.9401655758
  C        14.0048604585        2.3002564307       21.4299821821
  N         9.9527989724        8.4260931795       18.0868498076
  C        10.4894136506        8.1780917899       15.8723059440
  C        10.5622492124        5.9438452392       14.6761727154
  H        10.3310078040        4.2224842675       15.9075907337
  H         0.9123553242        6.5958413543       31.3872741870
  H         0.1593552087        5.1451819828       30.5731197926
  H         1.4531868325        5.0736708115       31.6191788059
  S         4.5256206031        1.6585580182       34.3685939109
  C         4.8395536129       -1.0291851134       34.9932872319
  H         4.0152974581        2.9790476118       19.4640787800
  H         4.4525025356        2.7731373951       17.7320144170
  C         3.0441643945        1.3765617803       18.6385510207
  H        14.0582894005        3.0219521680       20.6244244479
  H        14.7767770827        1.6339508041       21.1950864746
  C        14.4453600988        2.8450075168       22.7776613632
  S        10.1230620053        9.9490020266       17.4655419243
  N        10.5039730445        9.5928880596       15.9830352102
  C        10.7680688514        7.4230672203       14.6817365420
  H        10.6737139086        5.3241923499       13.7843627097
  C         4.3133231992        0.9535759647       35.9704276629
  N         4.3755954476       -0.3997825388       36.0868155184
  O         4.9624271283       -2.2220414115       34.7733642955
  H         2.1155117355        1.8729643517       18.6630679365
  H         3.0135283022        0.7859182813       19.5898513142
  C         3.0569409816        0.5441862025       17.3599293726
  H        14.9352356185        3.7518594828       22.5744532494
  H        13.5971668629        3.0992690825       23.4119669167
  C        15.3131495884        1.8393574652       23.5618158589
  C        11.0667679519        8.1079386790       13.4708277271
  S         3.8918001063        1.8360188543       37.4703393750
  C         4.3611772119       -1.1043750367       37.2987366473
  H         2.8819049327        1.1965750284       16.5025070022
  H         4.0436405573        0.1157585979       17.1630675772
  C         2.0864142087       -0.6735973434       17.3370786095
  H        15.2515429079        0.9355248013       23.0718490994
  H        14.9906173751        1.6474248312       24.5901300763
  C        16.8027450834        2.2386630968       23.6764884405
  H        10.6431001506        9.1254922788       13.5502820902
  C        11.5821299671        7.8191330969       12.2283509801
  H         3.5430398211       -0.7660625552       37.9398717760
  H         4.1085619761       -2.0818234731       36.9890061419
  C         5.7061967390       -1.3178082262       38.0950871092
  H         1.4312818863       -0.5354981070       16.4608251510
  H         1.3177474728       -0.7283933945       18.0925260269
  C         2.7518099184       -2.0044029478       17.2978971732
  H        16.7871844471        3.1018233947       24.2493117442
  H        17.2291486162        1.5233391573       24.3446406365
  C        17.5845759067        2.3984914651       22.3727863318
  S        12.3134658923        6.3333042133       11.7109751995
  C        11.5899229933        8.8372693270       11.1405815533
  H         5.4371926888       -1.5975027516       39.0981753038
  H         6.2961740192       -2.0943867233       37.6430826323
  H         6.1921273267       -0.3127695353       38.0252149798
  H         3.4446477707       -2.1376271018       16.4295555933
  H         1.9854263144       -2.7759421804       17.4165670827
  H         3.4204266120       -2.0605376078       18.1164684356
  H        18.6145551636        2.1728472816       22.7658084115
  H        17.4860615294        3.4335245101       22.0330702808
  H        17.2699009409        1.7085455723       21.5976085155
  C        12.6963991094        7.1410860859       10.1697060447
  N        12.3400242803        8.4471372318       10.0881015095
  O        11.0678679322        9.9078872332       11.2706469775
  S        13.6179041110        6.4060824697        8.8116429401
  C        12.4390937360        9.2285068574        8.8359789191
  H        12.5787609326       10.3042331092        9.0879586636
  H        13.2799901139        8.8473710727        8.2119245832
  C        11.1161294260        9.0451291327        8.1376760537
  H        10.8499357233        8.0002906672        8.0264201050
  H        10.3160883001        9.4865979796        8.7752215420
  H        11.1009474754        9.4109698925        7.1308054767
  H        21.2263374304       10.7505170369        3.4126467229
  C        21.9144147042        9.9127955516        3.4346432121
  H        21.3223948496        9.0020407704        3.4242185080
  C        22.7073522642       10.0072251423        4.7915301069
  C        22.8320457865        9.9712282563        2.2896169862
  C        21.8262043154       10.5494547285        5.8654585717
  H        23.1913702146        9.0746283816        5.1535046380
  H        23.5324500447       10.7005502294        4.7215645604
  H        22.1348237030       10.3639576553        1.5418929259
  H        23.2663442090        9.0030561611        1.9287399491
  H        23.5066243724       10.8600430723        2.5415096650
  C        20.8124552554        9.5587206008        6.3756673478
  H        22.4174897659       10.7872864033        6.7213836706
  H        21.4203581579       11.4924785168        5.5686745670
  C        20.1882580589        9.8481494709        7.7216556245
  H        21.2876142922        8.5407708522        6.5403458587
  H        20.0995231460        9.4074067622        5.6214976479
  C        19.0217494010       10.8390276625        7.5974205595
  H        20.8715753557       10.3340707602        8.4070603928
  H        19.7375525489        8.9631443764        8.2147340955
  C        17.7655232323        9.9544223445        7.3648696207
  H        18.8513849136       11.5134159648        8.4288589258
  H        19.2881528175       11.5198079287        6.8056905540
  C        16.4446203906       10.7153829224        7.2210095993
  H        17.6355079117        9.2691958078        8.2539167315
  H        17.8646886277        9.3031476957        6.5347370625
  C        16.6175273060       12.0074195380        6.4964862472
  C        16.0687585668       11.4901317523        8.4091367284
  C        15.2564609429        9.9015806119        6.5812989248
  C        16.4205783105       13.1644909453        7.2460082977
  C        17.0627977039       12.2895760402        5.2170471073
  C        16.0748737460       12.8626320869        8.5387012911
  C        15.7349265742       10.7333733017        9.5319068408
  H        15.5901596468        9.3232101281        5.7819491885
  H        15.0105165774        9.1054239876        7.2842059545
  C        14.0053381835       10.7859874686        6.2715809860
  S        16.8447167100       14.5760943936        6.4241827937
  C        17.1806911135       13.6176210228        5.0129117985
  H        17.3760266950       11.5550493921        4.5525053873
  C        15.8165139706       13.3645307213        9.7029105836
  H        15.8700782165        9.6815111702        9.5098040625
  C        15.4197641644       11.3467301131       10.7131168582
  H        14.3334118751       11.7659436312        5.9166296087
  H        13.4247094331       11.0695111323        7.1493078159
  C        13.1304534685       10.2869058593        5.1141469433
  C        17.6346864436       14.2438897888        3.7103028159
  C        15.4426055812       12.6833371810       10.8573653202
  H        15.6214990164       14.4480274598        9.7789407571
  C        15.1254389051       10.9899933319       11.9859756463
  H        12.1545404532       10.7262146696        5.1027033142
  H        12.9189576433        9.2411893852        5.2226479639
  C        13.7298994737       10.5800429344        3.7006194219
  C        17.6613349755       15.6582644128        3.3970626822
  C        17.9902039029       13.3517477480        2.5743130324
  C        14.9980024744       13.4528406731       12.0773920557
  C        14.8012574035       12.0762757696       12.7630922207
  S        14.7214742507        9.4609819874       12.6778767374
  H        14.8072850057       10.6384696686        3.6485943651
  H        13.2370434671       11.5807248677        3.5246997022
  C        13.2494490453        9.5890955026        2.5787175382
  N        17.3513188516       16.6966167027        4.3159548306
  C        17.9368536443       16.1528179031        2.1658992275
  C        18.2626397629       13.8945180932        1.3087984526
  H        18.0559192905       12.2263483066        2.6486381639
  C        13.6716053349       14.1600523212       11.6927413427
  C        16.0720289127       14.3323370081       12.7993544598
  C        14.4957053908       11.6282283767       14.0407751363
  C        14.3557964501       10.2856926985       14.1557709048
  H        14.1124005262        9.0931760020        2.1366290230
  H        12.5602952287        8.8427505335        2.9149934250
  C        12.6123085319       10.4073660857        1.3778803235
  S        17.9090251506       18.0923363489        3.6423277716
  N        18.1532825040       17.5533933189        2.1641016918
  C        18.1995903812       15.3531011126        1.0789076855
  H        18.6922211493       13.2063644180        0.5935253943
  H        13.8153876928       14.9250443504       10.9565589377
  H        13.3766907602       14.7351864807       12.5396835327
  C        12.5625620772       13.2917617627       11.1454210547
  H        16.2526392375       15.3178033255       12.3504020559
  H        15.7216262127       14.4413098006       13.8520294446
  C        17.4533374493       13.7313061421       12.9308838493
  H        14.2973070097       12.2876140107       14.8593307721
  C        13.9963384787        9.5861079126       15.4138388134
  H        13.3835369274       11.0373733439        1.0204983035
  H        11.8342169540       11.0441199838        1.6877478610
  C        12.1111641878        9.6788674702        0.1589701236
  C        18.5717856540       15.9945879403       -0.1362521543
  H        12.8277685955       12.9574654378       10.0945979705
  H        12.4410322488       12.3104946886       11.6494092809
  C        11.2894442221       14.1758031004       11.0241757657
  H        17.7492503606       13.5624367129       11.9002337357
  H        17.4759719778       12.7591067938       13.4629053335
  C        18.3916869634       14.8004278420       13.6041130131
  C        13.8141468948        8.1712327114       15.4784516270
  C        13.8266484065       10.3707828164       16.6186177996
  H        12.9707340179        9.2368212665       -0.3359585086
  H        11.3627193068        9.0043489645        0.4251779335
  C        11.6145916372       10.6359676327       -1.0274163802
  H        18.6737208776       17.0871129204       -0.0743346539
  C        18.9493655761       15.4976486689       -1.3573850004
  H        11.3623193384       14.8576398695       10.1380818560
  H        11.0812624246       14.7446037393       11.8806787490
  C        10.0881183781       13.3409627395       10.7635961286
  H        18.6989613496       15.6028303253       12.9661484165
  H        17.8796322526       15.1862293738       14.4893908712
  C        19.7433273525       14.2725382117       14.1370162801
  N        14.0881455422        7.2652334801       14.5064419020
  C        13.5735721128        7.5087293901       16.6922447724
  C        13.5161071552        9.6638652675       17.7925857429
  H        13.9414828740       11.3884466015       16.7370353611
  H        10.7028825103       11.1939262260       -0.8095524160
  H        11.5463091651       10.1226204992       -2.0047756587
  H        12.3617573015       11.4343296308       -0.9590956308
  S        19.0866451063       13.8341910806       -1.7742981120
  C        19.0832569262       16.4798798363       -2.4641458775
  H        10.4674657791       12.3421189120       10.4350027534
  H         9.5550660733       13.1482234978       11.6620858585
  C         9.0880850445       13.9381911288        9.8445923648
  H        20.0662457406       13.4218529363       13.5607878719
  H        19.6694618859       13.9114845275       15.2078127077
  C        20.9285619209       15.2377183030       13.9994434690
  S        14.0673781911        5.7247855934       15.1140604496
  N        13.5217964580        6.1063459840       16.5933784804
  C        13.3091167205        8.2049479270       17.8531690671
  H        13.4777428772       10.1343407611       18.7437693251
  C        19.4337240926       14.4960719734       -3.3720761709
  N        19.4916405358       15.8206091636       -3.5025618417
  O        18.8700588048       17.6565942856       -2.2869798946
  H         8.7400778259       14.9565972915       10.0252794140
  H         9.6333826386       13.9793675274        8.9786044472
  C         7.8574461775       13.0481407048        9.6174893830
  H        21.9315638557       14.7309232975       14.0695858230
  H        20.7865863660       15.7078195991       13.0451230249
  C        20.9113816769       16.3479945648       15.1433982043
  C        12.9924339788        7.4484315733       19.0041773275
  S        19.8594709529       13.4678930313       -4.7355085078
  C        19.6313277015       16.5331490490       -4.7915017828
  H         8.0110285733       12.3664466436        8.7558272396
  H         7.5326462202       12.3911027723       10.4046122595
  C         6.6252143607       13.8586544672        9.1732450918
  H        21.5086912928       16.1673080269       16.0144742864
  H        19.8706983396       16.4882687885       15.3197931582
  C        21.4339173343       17.6946426427       14.6458138014
  H        13.2431668895        6.3918600620       18.9471972168
  C        12.4426162390        7.7342342549       20.2087210538
  H        20.3503210964       16.1001451081       -5.5736155599
  H        20.0385574901       17.5137755203       -4.7178401026
  C        18.1994877211       16.7274249991       -5.2868127560
  H         6.0120173329       13.1877281412        8.5341480816
  H         6.9089202190       14.8161437113        8.7224835534
  C         5.6221162343       14.0549193095       10.2714471995
  H        20.6522005658       17.9526172823       13.8809885434
  H        21.4452012715       18.4831880522       15.3896257609
  C        22.7857410356       17.6413995763       13.9999686115
  S        11.7794231833        9.1886441071       20.7887664941
  C        12.3386623381        6.5904114445       21.1428771930
  H        18.2835916823       17.4976580067       -6.0806599578
  H        17.5233229663       17.2350751990       -4.5560579861
  H        17.7079537640       15.8281139708       -5.7445527507
  H         5.8591563590       14.9447199036       10.9067513328
  H         4.6041778754       14.3222306385        9.8578285300
  H         5.4658026238       13.1470165723       10.7931050062
  H        23.4001014925       18.2974307619       14.6445924845
  H        23.2911367127       16.6377761777       13.8836921276
  H        22.7306156660       17.9867838089       13.0284003721
  C        11.5900582050        8.3348378792       22.3178270671
  N        11.7496721339        6.9625931016       22.3423143016
  O        12.7567251128        5.4377081971       21.0094582640
  S        10.9653662730        9.1939899906       23.7066546703
  C        11.6872697888        6.1823477926       23.5765802998
  H        11.4098834178        5.1263008779       23.3095112829
  H        11.0153063236        6.7134595569       24.2704605635
  C        13.1503799056        6.0833747919       24.2280230763
  H        13.1976506434        6.6890295564       25.1190601381
  H        13.9927491216        6.3171213964       23.5931292494
  H        13.3219928527        5.0787078983       24.5860209624
