352
 i =    29400, time =    29400.000, E =        25.0028736232
  H        10.7987182898        7.2906129213       32.2101972291
  C        11.0482150602        6.3048871037       32.4717397655
  H        12.1341124719        6.1013250369       32.3548648651
  C        10.2242619191        5.4955128929       31.4084901471
  C        10.6345360785        5.9583768504       33.9264142688
  C        10.4122730888        5.9663303786       29.9372848346
  H        10.4993084693        4.4062916158       31.3583340007
  H         9.1330474759        5.6165650046       31.5332761291
  H        10.7659245190        4.9493725527       34.2688894913
  H        11.2105280772        6.7159866482       34.5596703694
  H         9.5637638945        6.1587235975       34.0142558165
  C        10.3195560652        4.7971760544       29.0197382947
  H        11.3065746315        6.4960795840       29.7140851369
  H         9.6181957795        6.6795893236       29.7016182667
  C        10.6409058968        5.2956063734       27.5754200072
  H        11.1373373016        4.2396788484       29.4639907087
  H         9.3292345722        4.3788312712       29.1008061419
  C         9.6851888426        4.6747057283       26.5778884915
  H        11.6691747757        5.0153384242       27.2580818662
  H        10.8008193599        6.3595920149       27.6212046805
  C         8.5434332365        5.6092094999       26.3773962780
  H        10.2156593002        4.3913398652       25.6839434414
  H         9.3804346834        3.6910473560       26.9630037837
  C         7.3642681006        5.0735760873       25.5281817378
  H         8.0661341931        5.9464722106       27.3320341952
  H         8.9982869491        6.4519474487       25.9316870466
  C         6.8662978222        3.6998475572       26.0712050682
  C         7.8589583964        4.4384084251       24.3217423308
  C         6.1151197870        5.9963302306       25.2595347660
  C         7.2281872452        2.5708648433       25.3335453270
  C         6.2679688344        3.2893565377       27.2422022994
  C         7.7886298201        3.1080884118       24.1557016803
  C         8.2645555215        5.1779791960       23.1895128257
  H         6.5724556872        6.7495109793       24.6346168857
  H         5.7903050235        6.5206377257       26.1887770890
  C         4.9717176363        5.3275941044       24.5598498503
  S         6.8099048794        1.1108793300       26.0551686551
  C         6.0961203906        1.9879344803       27.3715727161
  H         6.1602553036        4.0339318426       28.0279745693
  C         8.1991731833        2.5565562761       22.9931571907
  H         8.1092653060        6.2595172614       23.2137147508
  C         8.5960217702        4.6091059842       21.9933677556
  H         5.2784960489        4.8649108671       23.6301362081
  H         4.5862181309        4.4134126207       25.0851895171
  C         3.7706767780        6.2524298374       24.2750481086
  C         5.7024944302        1.3313235874       28.6590299294
  C         8.6026549186        3.2754727641       21.8758565081
  H         8.2501348650        1.5016091310       23.1424982798
  C         8.9365136172        4.9982058144       20.7278744466
  H         3.1510062430        5.8700423855       23.5406803538
  H         4.1361236211        7.1622453677       23.8523054510
  C         2.9454732211        6.5756655584       25.5801265340
  C         5.8256895663       -0.1046123000       28.8972295554
  C         5.0067974598        2.1230498890       29.7243664970
  C         8.9448724092        2.5059838482       20.5724035606
  C         9.0963613293        3.8904216785       19.8787951541
  S         9.0779718083        6.4289063247       19.8964517138
  H         2.1776608651        7.2385030797       25.3515882734
  H         3.5588191526        7.0622347960       26.2955779675
  C         2.2218557524        5.3171348511       26.1920546209
  N         6.2459794604       -1.0951949745       28.0305934711
  C         5.5691263190       -0.6221511110       30.1462107462
  C         4.8163956100        1.6101688755       30.9715712075
  H         4.7056408181        3.1571849329       29.5837202900
  C         7.7863373789        1.6352771867       20.0392928673
  C        10.2746618777        1.7064763897       20.7494094770
  C         9.6093020000        4.2836283655       18.6094181432
  C         9.6763113138        5.6452724837       18.4441258979
  H         1.6535753433        4.9368476426       25.4799821178
  H         2.9718296671        4.5677142725       26.4565883412
  C         1.4089987285        5.7429078883       27.3817907562
  S         6.0851757560       -2.5267397929       28.7785428247
  N         5.7092652594       -2.0255340682       30.2258862766
  C         5.1497396752        0.1356618310       31.2166427126
  H         4.4447973746        2.2930043387       31.7532137997
  H         7.1937063829        1.1519042600       20.7793691932
  H         8.2369223559        0.9026594569       19.3817734697
  C         6.7002561492        2.4068582892       19.3383959241
  H        10.6577772163        1.3572237178       19.7653217976
  H         9.9904237044        0.9299230346       21.3853702996
  C        11.4855987599        2.4854000984       21.2993219338
  H         9.9785649819        3.6302027653       17.8643114424
  C        10.0594065107        6.3714891052       17.2097169900
  H         0.6013187122        5.0744244994       27.4343878823
  H         0.9158852371        6.7019131994       27.1503056364
  C         2.2540665010        5.9143227538       28.5523233317
  C         5.0239767769       -0.4891964032       32.4619034548
  H         7.0376392058        3.0440476973       18.5000465704
  H         6.2442535812        3.0940899002       20.0942617432
  C         5.5972560763        1.5214584190       18.7024814010
  H        11.3051264797        2.9150799026       22.2976824684
  H        11.9181427315        3.2705542927       20.6243770541
  C        12.5937518950        1.4546811724       21.5306065395
  C        10.1503747270        7.8139261739       17.0674506629
  C        10.3684202725        5.6554247982       15.9352378962
  H         3.0029343620        5.0944498252       28.6084015304
  H         2.7410817554        6.8659921891       28.4027784203
  C         1.4531053113        5.9390589530       29.8676287227
  H         4.9433522431       -1.5413532561       32.5059554752
  C         4.8313371406        0.0068942295       33.7242081471
  H         5.1787174941        0.8533320117       19.4509338069
  H         6.0479637098        0.8496987283       18.0769580224
  C         4.4788240618        2.3212066478       17.9770971042
  H        12.5611267242        1.0296738883       22.5009498081
  H        12.3171540976        0.5465216428       20.9763250881
  C        13.9904806061        1.9574353215       21.2368659671
  N         9.9034290063        8.7797814622       18.0629834739
  C        10.4552362651        8.3965211631       15.8709470789
  C        10.7274434263        6.2292376724       14.7586253647
  H        10.4026226211        4.5988177458       15.9525560516
  H         2.1577349285        5.6651546844       30.6484719142
  H         0.9794328437        6.8066516940       30.1605827733
  H         0.6131273736        5.2842576361       29.5989178447
  S         4.5875432855        1.6461789698       34.1940560230
  C         4.7304252871       -0.9513564700       34.8752807650
  H         4.3053502213        3.2511558919       18.5307350112
  H         4.7553294843        2.6353000305       16.9934574431
  C         3.1316917634        1.5611010151       18.0510249390
  H        13.8807504167        2.5049550767       20.2281858464
  H        14.7040697716        1.1824004613       21.2485032148
  C        14.4907596227        2.8648955523       22.3907854862
  S         9.9753190527       10.2407058815       17.3790263793
  N        10.5287985297        9.7858140603       15.9358918040
  C        10.7156562707        7.7041197655       14.6375763051
  H        10.8838935895        5.6227365509       13.8892930686
  C         4.3709989508        1.0886751323       35.8034107247
  N         4.4593863539       -0.2810665006       35.9388165686
  O         4.7973758155       -2.1558308672       34.7458406852
  H         2.3485392804        2.2178482709       17.6788658818
  H         2.8636567730        1.3894956021       19.0453525536
  C         3.1143521090        0.1260052114       17.4533610012
  H        15.3081260341        3.4394596590       21.9842230142
  H        13.6203345954        3.5237174533       22.6413421223
  C        14.9946806054        2.1051748287       23.5870161294
  C        10.8643098293        8.4164154119       13.4262124152
  S         3.5965911801        2.1472992963       37.0495572015
  C         4.5066765579       -0.9359979741       37.2510686477
  H         2.2238767444        0.0399605664       16.7958095743
  H         4.0852908346        0.0208279116       16.8725320837
  C         3.0692214752       -1.0131739282       18.5700677696
  H        14.8418148275        1.0235069890       23.6885774038
  H        14.4505373195        2.4225849641       24.5015618410
  C        16.4231726656        2.4878412276       23.7528813465
  H        10.5855570789        9.4565047312       13.4583077542
  C        11.3666997248        8.1170814135       12.1624244879
  H         4.0064765288       -0.3825234791       38.0600214679
  H         3.9513461074       -1.9157411883       37.1630261732
  C         5.9000376208       -1.2298799890       37.8345060757
  H         3.6431540409       -0.6517403165       19.4658647466
  H         3.4585454082       -1.9268989731       18.2737684778
  C         1.5913500786       -1.1453756823       19.1493266797
  H        16.6149123946        3.5657314892       23.9640069570
  H        16.7550002530        2.0636397931       24.7441515611
  C        17.2379319019        1.8773896780       22.6919575166
  S        12.0865538943        6.6123999060       11.7034872315
  C        11.4510608907        9.1789895134       11.0909436719
  H         6.6390664762       -1.1300457978       37.0577024533
  H         6.1121683261       -0.7246177176       38.7522690763
  H         5.9188567976       -2.2778566151       37.9257639439
  H         1.5228376381       -1.9841463556       19.8832328337
  H         0.8455121703       -1.3337364743       18.4090403729
  H         1.3656662848       -0.3464646537       19.8643759971
  H        17.2099484941        2.4735429441       21.8029705488
  H        16.9133901617        0.8989856136       22.4368910229
  H        18.2765915810        1.6404808321       22.9040089774
  C        12.3307107763        7.3462047073       10.0969844975
  N        12.0289170659        8.6807881213        9.9958920254
  O        11.1965377428       10.3470804176       11.2549593745
  S        13.0419681998        6.4989873559        8.7585813780
  C        12.1840258524        9.4847261805        8.7635233748
  H        12.6822871145       10.4247228248        8.9996060622
  H        13.0261648443        9.0951136065        8.0970833470
  C        10.8808072968        9.7888700991        8.0117644440
  H        10.0482647465        9.5087784223        8.6328083841
  H        10.7680522654       10.8437538994        7.7101447311
  H        10.7842818281        9.1320977628        7.1466210694
  H        20.3869653561       11.6573746494        3.6795434441
  C        21.1239578294       10.8837195302        3.4458844000
  H        20.5123977777        9.9404576660        3.5175992707
  C        22.2656633988       10.8494701774        4.4811011769
  C        21.7290626748       11.0067879344        2.0228103440
  C        21.7911873250       10.9798188767        5.9512609109
  H        22.6011239562        9.7912334382        4.3136075286
  H        23.0984156718       11.5443326830        4.3978276757
  H        21.1198985505       11.7071091301        1.3240212579
  H        21.6568059719       10.0051848567        1.5576081833
  H        22.7669709269       11.4210485052        1.9846153291
  C        20.9479762686        9.8514676073        6.4434578090
  H        22.7329114125       11.0518415574        6.3835933722
  H        21.3267193867       11.9389030472        6.0411161965
  C        20.3251433948       10.1495367750        7.8404262754
  H        21.4293752797        8.8861969618        6.4799607726
  H        20.1799672810        9.6543517967        5.6924606912
  C        19.0302317889       10.9756128462        7.7714145881
  H        21.0606186208       10.6145968376        8.5227534219
  H        20.1227516072        9.1684887626        8.3250335043
  C        17.8317015815       10.2187548464        7.2087275627
  H        18.7970188608       11.3428179281        8.7853751923
  H        19.2269508436       11.8654043316        7.1520627539
  C        16.5506756121       11.0389496496        7.0240752840
  H        17.5425352155        9.3177800627        7.7635036896
  H        18.0390956493        9.9129455088        6.2299629218
  C        16.9085944706       12.3732952370        6.3992038656
  C        16.0659042966       11.7610174750        8.2655104648
  C        15.5035414918       10.3056234889        6.1943497781
  C        16.5800910505       13.5154465580        7.2022337982
  C        17.4444253393       12.7889507944        5.1932300963
  C        16.0683155949       13.1038453945        8.4031032972
  C        15.6414694077       11.0438704894        9.3950540691
  H        15.7935548310       10.1865131896        5.1755717591
  H        15.3093500231        9.3407930776        6.5848864697
  C        14.1499538788       11.0697174054        5.9291877149
  S        16.9657183690       15.0044902179        6.3928026240
  C        17.6017854544       14.1215984065        5.0317049879
  H        17.7210725561       12.0441259158        4.4578854342
  C        15.6729135015       13.7018072441        9.5265051589
  H        15.7576834203       10.0045976452        9.2671697958
  C        15.3276570362       11.6385412371       10.5424631187
  H        14.2392336232       12.0507879393        5.5078075356
  H        13.5882161223       11.0735902817        6.8065052265
  C        13.2185407249       10.3891723269        4.9055807555
  C        17.9339707282       14.7917258020        3.7507680125
  C        15.3204152107       12.9963865521       10.6787776751
  H        15.7617888791       14.7697843032        9.5192574219
  C        14.9472451416       11.2951043888       11.7807410044
  H        12.1841874640       10.6152867700        5.0330365713
  H        13.2050696208        9.2723198944        4.9894657096
  C        13.6177603557       10.7721327779        3.4884612677
  C        17.9638122221       16.1812417431        3.4323645619
  C        18.5383682503       13.9610275935        2.6856011291
  C        14.9277795453       13.7306227984       11.8062556428
  C        14.7290144171       12.4337782843       12.5541554874
  S        14.6877777274        9.8584006002       12.5636140274
  H        14.6966222793       10.6529997269        3.4607834717
  H        13.3329331567       11.8080542677        3.2299824381
  C        13.0131407775        9.8364465408        2.4949913426
  N        17.4393391340       17.1608351683        4.2890454400
  C        18.3117030341       16.7050662230        2.1755734035
  C        18.9286534182       14.4618969257        1.4724061715
  H        18.7085882633       12.9479724696        2.9463333789
  C        13.6117161713       14.5416921575       11.7026273369
  C        16.0637081507       14.5981278605       12.4077641641
  C        14.2383898531       11.9818373049       13.8046515174
  C        14.2406591651       10.6458240579       13.9582585086
  H        13.5025519817        8.8627277187        2.7101919141
  H        11.9217654252        9.6290301096        2.7290039391
  C        13.1903794754       10.2566616892        1.0638637781
  S        17.5120176483       18.6423579123        3.5664411716
  N        18.0353040707       18.0894200380        2.0950608595
  C        18.7118214325       15.9017801427        1.0853514427
  H        19.3460864503       13.6679312607        0.8095981615
  H        13.7506289543       15.5076558423       11.2916946926
  H        13.2905032452       14.8201246193       12.6920740169
  C        12.3547782724       13.7950413581       10.9152670601
  H        16.4367945161       15.3601653271       11.6968078378
  H        15.7355382627       15.2304007648       13.2661008554
  C        17.2997018130       13.7503201825       12.7601365734
  H        13.9820083174       12.6532952244       14.6334607885
  C        14.0436304330        9.9391237166       15.2860752414
  H        13.9827573559        9.7089819317        0.6271332535
  H        13.4977495366       11.3181019747        0.9893140374
  C        11.8464313225       10.0698396055        0.3917675885
  C        18.9442576574       16.4772122719       -0.1952290260
  H        12.7119625850       13.5949719326        9.8296498291
  H        12.1712443354       12.8142396243       11.4269746072
  C        11.0221957727       14.5914951778       11.0455927841
  H        17.5711344380       13.1895799424       11.8433172634
  H        16.9951039089       13.0119234262       13.5653000426
  C        18.5102917658       14.4769353309       13.2628252611
  C        14.0437160781        8.5075578348       15.3915407707
  C        13.7794079262       10.6937118726       16.4894253666
  H        11.3579688009        9.0965683385        0.6349888290
  H        11.2364300840       10.9001614834        0.6273331904
  C        11.8572619654       10.1433083731       -1.1551689916
  H        18.9270600278       17.5700229452       -0.1864279520
  C        19.2096664861       15.9873671881       -1.4442035626
  H        11.1286926460       15.5240425044       10.4204377431
  H        10.7860468617       15.0300326067       12.0567367475
  C         9.8349323996       13.7614199257       10.6840038088
  H        19.0001657849       15.0544728702       12.5063041649
  H        18.2367221380       15.2579933078       14.0307835886
  C        19.5571661135       13.5916554008       13.8662250187
  N        14.5167708568        7.6436913977       14.4045967383
  C        13.6642692884        7.8361787329       16.5475800565
  C        13.3787660332       10.0006169914       17.6581857810
  H        13.6431462427       11.7565722945       16.3918240047
  H        10.8280986916       10.3367975409       -1.6087926559
  H        12.1850210292        9.1440659712       -1.5942406239
  H        12.4145146380       10.9530415260       -1.5562752528
  S        19.2694027425       14.2961753862       -1.7935856341
  C        19.3708807861       16.9401652986       -2.5841438376
  H        10.1909395377       12.9532418491        9.9915078673
  H         9.4693493421       13.3674393796       11.6002057719
  C         8.7104809069       14.5764780132       10.0568895136
  H        19.9967523091       12.9500583008       13.1090033279
  H        19.1340108370       12.9112826522       14.6410900143
  C        20.8081447586       14.3972670809       14.3196254512
  S        14.4589025702        6.1570172471       14.9875314061
  N        13.7257127941        6.4107267560       16.4231455110
  C        13.3655750688        8.5116843296       17.7590097578
  H        13.1327280942       10.6279060153       18.4728412609
  C        19.6425856586       14.8613757051       -3.4705991974
  N        19.7203667644       16.2014982703       -3.6461139707
  O        19.2026815302       18.1682063477       -2.5641886035
  H         8.2460870142       15.2291650398       10.8132869035
  H         9.0935971735       15.3532033337        9.3570003266
  C         7.6809837819       13.6621956600        9.5715817217
  H        21.4143879993       13.7353655332       14.8815707633
  H        21.5163990383       14.4814136947       13.5295349115
  C        20.4731597872       15.7100828872       15.0586715102
  C        12.9640801299        7.7143171467       18.8661734613
  S        19.9762606552       13.7839539510       -4.8430043303
  C        19.7913190391       16.9247394060       -4.9260157655
  H         8.1310373847       13.1482756991        8.7925373223
  H         7.3596894342       12.8727970901       10.2369409421
  C         6.4239727326       14.3823989700        9.1472876599
  H        19.7877329401       15.5084631544       15.9001010959
  H        19.9589961284       16.4362411494       14.3413905977
  C        21.7416000917       16.4255144623       15.5161788750
  H        13.1187127257        6.6979154659       18.6750301216
  C        12.5359869529        8.0024395502       20.1228931887
  H        20.2568149840       16.2146427860       -5.5942766711
  H        20.5076106688       17.7374341507       -4.7994401826
  C        18.4477172092       17.2556355008       -5.5395926111
  H         6.0385942381       13.9261706766        8.2551741698
  H         6.5471499781       15.4274728730        9.0663619779
  C         5.3484351288       14.2679654170       10.2277814720
  H        21.5565656377       17.2182664833       16.2507575391
  H        22.3730909096       15.6554744126       15.9472289691
  C        22.4587592348       17.1225901025       14.3473660956
  S        12.2681607711        9.5506761296       20.7577116996
  C        12.4584720352        6.9485257288       21.0783714330
  H        18.3859865965       16.9976976497       -6.6092321093
  H        18.0669572280       18.2900739536       -5.3147610826
  H        17.6943765333       16.5579191951       -5.1344168826
  H         5.7937101222       14.5262570553       11.2565135115
  H         4.5035637340       14.8729940113        9.9393583307
  H         4.9465718349       13.2421411908       10.3633511256
  H        23.3129975328       17.5857087635       14.5968253351
  H        22.7992371738       16.4036809219       13.5844053716
  H        21.7879523825       17.8444811095       13.9072059665
  C        11.8077759651        8.7603967587       22.2676465924
  N        11.9463530176        7.4103785793       22.1954363076
  O        12.8087135726        5.8075211158       20.8308605880
  S        11.2705225375        9.6832636044       23.6538467211
  C        11.8912195972        6.5590006562       23.3706775670
  H        11.6827906234        5.5165649894       23.0511919097
  H        10.9709277494        6.8206127706       23.9218235796
  C        13.0697589634        6.7765315658       24.3616047971
  H        12.8710398284        7.5990168134       25.1057232964
  H        13.9496949464        6.9714108886       23.7466519834
  H        13.2097192392        5.8581500211       25.0124334816
