352
 i =    65300, time =    65300.000, E =        24.7884938748
  H        10.0915121823        4.8562186236       31.5602920487
  C        10.3983422525        5.8061236943       32.0677652761
  H         9.4905909095        6.2531038097       32.4724460823
  C        11.0367638619        6.7203915222       31.0125478071
  C        11.2898491315        5.5010427899       33.2604553433
  C        11.9146056444        6.0108315338       29.9256808807
  H        10.3340480335        7.4552047455       30.5882581575
  H        11.7749321179        7.3129819932       31.4911719687
  H        10.6480565243        4.9560017908       33.9109360324
  H        12.1081132194        4.8862282089       32.9128751394
  H        11.5814744626        6.4429205845       33.7330856383
  C        11.1611256920        5.0049137366       28.9053216662
  H        12.7220712981        5.4817398237       30.4920312519
  H        12.3646571306        6.8346906080       29.3438255391
  C        10.1139922741        5.8193340072       28.0592748194
  H        11.7964185136        4.5803298221       28.1345525932
  H        10.6615273659        4.2379272594       29.4471959979
  C         9.4053342058        5.0113230914       27.0437155076
  H        10.7469706869        6.5757680002       27.6117419461
  H         9.4369659615        6.3154669455       28.7498780834
  C         8.1231291338        5.7219227951       26.5515347123
  H        10.1166398418        4.9401357166       26.2338888766
  H         9.2176426637        3.9664469097       27.3684444963
  C         7.1961896249        4.8378557117       25.6528693596
  H         7.5406981104        5.8861375313       27.4560397300
  H         8.2499454564        6.6767045267       26.0211282085
  C         7.0063814236        3.4890205657       26.3165405978
  C         7.7886839267        4.1391558054       24.4567814885
  C         5.8438966247        5.4495289997       25.1199940198
  C         7.3084783967        2.3788531358       25.5385442252
  C         6.6277627309        3.0633562965       27.5718982375
  C         7.7306478163        2.7892333112       24.3050402729
  C         8.2449500368        4.8506134799       23.3403576992
  H         5.3447772039        4.7756494776       24.4729150359
  H         6.1287889259        6.3284432611       24.5946092313
  C         4.8270774742        5.8752924659       26.1237997395
  S         7.0909609866        0.8586666266       26.3586816014
  C         6.3993394139        1.7253706585       27.7013151869
  H         6.2499105668        3.7947469721       28.2623591928
  C         8.1551840020        2.2038178655       23.1394266214
  H         8.2535422637        5.9177042347       23.5140160456
  C         8.5335222353        4.2367273961       22.1455622462
  H         5.0033532394        5.2852806655       26.9892133262
  H         5.0974263277        6.8577659637       26.4230296111
  C         3.3416186754        5.7439154558       25.7324686209
  C         5.7089913465        1.0988662677       28.8946580902
  C         8.5886809433        2.9234046167       22.0256614892
  H         8.1162693558        1.1901202485       23.0663570070
  C         9.0291262944        4.7090072179       20.9188417144
  H         3.0642137788        4.7182393183       25.3312293579
  H         3.2246030058        6.4604804728       24.9664992079
  C         2.3820586601        5.9751302525       26.9725923352
  C         5.6560804595       -0.2761021882       29.1848879572
  C         5.0391889112        1.9500684119       29.8935462279
  C         8.9089220333        2.2505814176       20.7790016298
  C         9.2481292583        3.6564928558       20.0885944382
  S         9.3589179082        6.2071942354       20.1863942595
  H         1.4719554189        6.4344789176       26.6254437069
  H         2.8020901933        6.6195836597       27.7179852355
  C         2.0200073789        4.6621273256       27.5150524340
  N         6.2345596530       -1.3200410938       28.4301956316
  C         5.4314698861       -0.7437829994       30.4684011020
  C         4.6702556503        1.4578652322       31.1353431209
  H         5.0786158096        3.0425939504       29.7569645066
  C         7.7674874328        1.4183545446       20.1170157986
  C        10.2823228774        1.3801780815       20.8967806574
  C         9.8083898227        3.9739108596       18.8977386046
  C         9.8172481972        5.3236201011       18.7343194563
  H         1.2431931651        4.2938795571       26.8623664781
  H         2.8328084150        3.9188221293       27.4311768299
  C         1.4240742860        4.6842734629       28.8447425009
  S         6.4124396464       -2.6988729032       29.2998879482
  N         5.8128523849       -2.1366175207       30.6526679361
  C         4.8941483092        0.0634172487       31.4693236720
  H         4.2929177967        2.2156428398       31.8163715711
  H         7.4059125056        0.6588600475       20.8922693969
  H         7.9476043791        0.9613627399       19.1878759657
  C         6.5350443691        2.2761443256       19.7969809881
  H        10.4943694161        0.8441915929       20.0111787609
  H         9.9818299479        0.6735039357       21.6720811664
  C        11.5684483910        2.1026734110       21.2193856114
  H        10.0491908416        3.2669695998       18.2094116700
  C        10.2283407728        5.9613709001       17.4796963943
  H         0.7862557830        3.8667839386       28.9510111583
  H         0.8185816678        5.5809296938       28.8796521397
  C         2.2927074989        4.7999846698       30.1117891914
  C         4.8126235576       -0.4986511090       32.7705836628
  H         6.7313639252        3.0733919188       19.0786962774
  H         6.3146582357        2.7857881909       20.7246588985
  C         5.2481551591        1.4884723241       19.5154657933
  H        11.3561009896        2.6582986847       22.1353012493
  H        11.8338778457        2.7934734473       20.4534015671
  C        12.7571676858        1.1455195594       21.4148766054
  C        10.3744854205        7.3532460423       17.3199315658
  C        10.4672649288        5.0773844278       16.2700531192
  H         3.1744356713        4.1510096377       30.2252157346
  H         2.7060638356        5.7860954641       30.1192055358
  C         1.5039116713        4.5399929749       31.3711603856
  H         5.2655359086       -1.4184640363       32.8089331339
  C         4.5227539998        0.0219568116       33.9866706393
  H         4.3973546182        2.0663093721       19.9301896179
  H         5.2684997416        0.4678783781       19.8967916040
  C         4.9818534561        1.3567215266       18.0671460260
  H        12.6503742971        0.5224205166       22.3793529401
  H        12.7724033881        0.5518568995       20.4673337753
  C        14.0282128936        1.9623444604       21.5147064149
  N        10.1308898572        8.3325266570       18.3465052278
  C        10.7283589194        7.8504935640       16.0737457287
  C        10.6898245911        5.6179169486       15.0571800849
  H        10.3908871671        4.0057259822       16.3614070379
  H         1.7834686896        3.6314310311       31.9393990601
  H         1.5131179927        5.4155687371       32.0640216197
  H         0.4295413904        4.4337563779       31.2524539667
  S         4.3103689255        1.6584655760       34.2828969776
  C         4.4736189518       -0.8582101145       35.1605021086
  H         5.0215764953        2.3590208368       17.5844636460
  H         5.6381002818        0.6450870924       17.5890669814
  C         3.5123696399        0.9759775672       17.8521845114
  H        13.9150971626        2.9514203203       21.1476696476
  H        14.7299990308        1.4084608039       20.9645374429
  C        14.6374256904        1.8489729043       22.9125557612
  S        10.3206449720        9.7751557062       17.5939799461
  N        10.6621316726        9.1845933136       16.0596059636
  C        10.9095044962        7.0511574571       14.8882318212
  H        10.6606939599        5.0550899089       14.1701195974
  C         4.0970067091        1.1399377542       36.0346014812
  N         4.1354775197       -0.2448797400       36.2652170830
  O         4.4706534203       -2.1025074252       35.1494501306
  H         3.2696484760        1.0319693767       16.7726851491
  H         2.8899678073        1.8079714345       18.1803872639
  C         2.9951379015       -0.3542007249       18.4533200569
  H        14.0903913545        2.5323865805       23.5967773702
  H        14.5639073613        0.8118882088       23.3209642063
  C        16.0737203158        2.3596895277       23.0673967309
  C        11.1691851068        7.7368798375       13.6952054767
  S         3.7596172434        2.2208395249       37.3676767694
  C         4.0107299431       -0.9877568411       37.5023513702
  H         3.4573171578       -0.5076920219       19.4162271939
  H         1.9353680892       -0.4280543475       18.6269494788
  C         3.4717535184       -1.5977432664       17.5992698853
  H        16.3183639880        2.5035338452       24.1306036189
  H        16.2187485855        3.3147696033       22.5885684031
  C        17.0941240481        1.3419641945       22.6327064226
  H        10.9196401606        8.7052820282       13.7108014813
  C        11.7763666298        7.3638369725       12.5320971096
  H         3.2552307110       -0.4724543217       38.1107909938
  H         3.5839436985       -2.0192703457       37.4613463846
  C         5.4505373272       -1.2071283722       38.1910856146
  H         4.0697009901       -2.2638744441       18.1984614861
  H         4.1182634758       -1.3934926439       16.7329512230
  C         2.3159314812       -2.3850275912       17.0845173718
  H        16.9902202975        0.3971279869       23.0272437026
  H        16.9912678904        1.1957091880       21.5682694106
  C        18.5282798758        1.7945606772       23.1241356515
  S        12.3444488598        5.7554502424       12.1795853787
  C        12.1288667959        8.3996099368       11.5216730123
  H         5.4830796973       -0.9036603851       39.2389925128
  H         5.7082933223       -2.2612654430       38.2273178749
  H         6.2757450558       -0.6934807691       37.6369082248
  H         1.5341544805       -2.6025339522       17.8890596706
  H         2.5472679002       -3.2574344856       16.4966696334
  H         1.8237204166       -1.6954868100       16.3849490066
  H        18.6262810757        1.9324345117       24.1854198638
  H        18.8640629294        2.6734996400       22.6188148112
  H        19.1339001041        0.9679391199       22.8784214883
  C        12.7879594082        6.4426873747       10.5868571024
  N        12.6723286866        7.7827283547       10.4247326728
  O        11.7621597809        9.5403153985       11.5566555583
  S        13.9029447044        5.7645279503        9.3898695101
  C        12.8963388269        8.4831722075        9.1830165268
  H        13.0072762462        9.4599374309        9.5533432704
  H        13.8932042746        8.3819820041        8.7043166281
  C        11.7841198151        8.3612258203        8.1608959908
  H        11.3708837189        9.3758074668        7.8960839397
  H        12.1162434901        7.8844110039        7.2616379559
  H        10.8975913743        7.8384063977        8.4724529033
  H        22.6566367797        8.8808193032        3.6120942941
  C        22.8057663151        9.9284816942        3.5252612519
  H        23.5014973629       10.2352835238        2.7119328142
  C        23.2049429415       10.5698381615        4.8405998632
  C        21.4337526481       10.3760401262        2.9819113116
  C        21.9972008668       10.4519275677        5.8495529957
  H        24.1992814247       10.3225023279        5.2900370767
  H        23.3234260541       11.6521928677        4.6389948833
  H        21.3796715406       10.3110119199        1.8856866001
  H        21.0141725309       11.3351107719        3.3682767582
  H        20.6565173468        9.7089985121        3.1645938248
  C        21.3703879008        9.0068153908        6.1106485847
  H        22.4583623937       10.6649424999        6.7984370910
  H        21.2072939150       11.2390982162        5.6096415783
  C        20.6427802132        8.9516230611        7.4544623603
  H        22.2016655206        8.3802715454        6.1512730522
  H        20.7169772909        8.6662738890        5.3352231973
  C        19.4415556144        9.9380947340        7.5967658055
  H        21.3601498652        9.3215318028        8.1969411068
  H        20.3543119806        7.9297093010        7.8682655607
  C        18.2394732879        9.3104818144        6.9632113376
  H        19.2265061863       10.1150166859        8.6462610610
  H        19.6420138584       10.9284463727        7.1280507596
  C        16.9791929209       10.1799568821        6.9487742206
  H        18.0741556233        8.3405876724        7.4375884813
  H        18.4061106508        9.0823856593        5.9177276250
  C        17.3604072792       11.5014415925        6.2439547356
  C        16.6730946319       10.8579441449        8.2002276276
  C        15.7328976583        9.5314891627        6.2635616294
  C        17.2526357875       12.5693633211        7.1173364555
  C        17.9124471296       11.9361814463        5.0058672807
  C        16.8865652360       12.1669351791        8.3821141957
  C        16.2424939794       10.1190985093        9.3251078685
  H        16.0188769884        9.1833625498        5.2911562851
  H        15.5128686880        8.6932389952        6.9550767226
  C        14.5039066853       10.4548752653        6.0770940117
  S        17.6543578328       14.0886841986        6.4152231771
  C        17.9332727861       13.2914232286        4.8920534816
  H        18.0644404551       11.2406336313        4.1912363265
  C        16.6014764057       12.7781864637        9.5569885526
  H        16.0450476425        9.0853694089        9.1106342418
  C        15.8452598619       10.7337223093       10.5106297143
  H        14.7948432292       11.3987591355        5.6023708251
  H        14.2314423430       10.7795261244        7.0771074242
  C        13.3425378431        9.7955272669        5.3697712390
  C        18.1883088388       13.9723387003        3.5623183012
  C        16.0373858839       12.0899687671       10.6220164241
  H        16.6697732382       13.8528517306        9.5759246132
  C        15.3464890450       10.4336258898       11.7940843497
  H        12.4931432307       10.3559641391        5.4309616814
  H        13.1932988381        8.8121167251        5.8604900151
  C        13.6818536239        9.6168673827        3.8815480614
  C        18.2266878273       15.3523264282        3.2915924161
  C        18.6829177393       13.1684868321        2.3791422519
  C        15.5086385675       12.8222675615       11.7919595045
  C        15.1820477005       11.5368807497       12.5239022727
  S        14.9859453344        8.9779714296       12.6179104915
  H        14.4338460938        8.8396844896        3.7502840804
  H        14.1085444195       10.5106566110        3.4995356394
  C        12.4898211736        9.4005653538        3.0355394770
  N        17.8129911420       16.2837234124        4.2813426071
  C        18.5765587456       15.9373489050        2.0749512760
  C        18.9498227333       13.7180224485        1.0969930150
  H        18.8592205013       12.1014544522        2.4810977846
  C        14.1954978763       13.6626046542       11.4565669404
  C        16.4512601369       13.7246629345       12.5809711394
  C        14.6849844738       11.2657974883       13.8608966618
  C        14.6653794631        9.9220650913       14.0683381047
  H        11.6697694464        8.7634632098        3.4250711829
  H        12.0210297842       10.3861061690        2.9955995805
  C        12.7928495717        8.9870873480        1.5912958327
  S        17.8894454806       17.7502559561        3.5738835922
  N        18.3999036929       17.3632350386        2.0719868305
  C        18.9890753639       15.1853699766        0.9560615292
  H        19.2108376317       13.0181013469        0.3461324708
  H        14.5051498702       14.3473584020       10.6630250239
  H        13.9987386597       14.3364986922       12.2697420515
  C        12.9435529126       12.7663691640       11.3726591109
  H        16.6381836884       14.6019167231       11.9676224952
  H        16.0622745745       14.1230628402       13.5395010109
  C        17.8485741707       13.0204001590       12.8878683324
  H        14.5698048106       12.1370403161       14.5399451905
  C        14.2169521434        9.2003110993       15.2958085770
  H        11.8947605692        8.9497290301        0.9596987265
  H        13.0552861961        7.9204979224        1.6919582659
  C        13.9195389007        9.6991990663        0.7805598759
  C        19.4268219954       15.9413426905       -0.1977193055
  H        13.1236690468       12.0298797757       10.5796666733
  H        12.7209452359       12.2427082517       12.2242792821
  C        11.7847997404       13.5809666758       10.8950236996
  H        18.4058006769       12.6297086688       12.0214624338
  H        17.7777942995       12.1484806143       13.5857889676
  C        18.7218482783       14.0411972846       13.5523082415
  C        14.2067533322        7.8264652453       15.5289505023
  C        13.8166676386        9.9864591890       16.4502424384
  H        13.9696021018       10.7078718291        1.1177528157
  H        14.9226014344        9.2202140551        0.8284136754
  C        13.3832430345        9.7717496517       -0.7241753169
  H        19.4696993219       16.9464422291       -0.0803288489
  C        19.6775382245       15.5331908408       -1.4893425216
  H        12.1301279471       14.3302290445       10.1868155699
  H        11.4038282270       14.1190474617       11.7774881548
  C        10.6535633162       12.7575967459       10.2341101195
  H        18.7749085001       14.9053027473       12.9123534153
  H        18.2948589257       14.3719685366       14.5178598339
  C        20.0595542653       13.3663000586       13.7080899470
  N        14.4903184315        6.8494302669       14.5555535418
  C        13.8674890807        7.1975068102       16.7447066900
  C        13.4398322789        9.3520325898       17.6564800206
  H        14.0123580545       11.0992577401       16.5009555207
  H        14.1124657769        9.7388425363       -1.5059478346
  H        12.7328581708       10.6443534322       -0.8163937287
  H        12.6835441169        9.0042575536       -0.9297489215
  S        19.8934375414       13.9386317779       -2.0324959746
  C        19.6966652525       16.5848248297       -2.4965726068
  H        11.1223348351       12.2075225694        9.3784615183
  H        10.3000707611       11.9561615496       10.9488757633
  C         9.4912455692       13.5999283249        9.8832945150
  H        20.5164770719       13.2082683741       12.7595775692
  H        19.9767016182       12.3353601836       14.0714039854
  C        21.0061698537       14.1713012708       14.5468804452
  S        14.3067660343        5.3514261472       15.1985776186
  N        13.9255385421        5.7744524894       16.6964026132
  C        13.5113222489        7.9134110155       17.8710549447
  H        13.0828328184        9.9339183229       18.4595540921
  C        20.0277450101       14.6655956373       -3.6523766396
  N        19.9833799067       16.0362291997       -3.6945602993
  O        19.5093163322       17.7475680347       -2.3202384676
  H         9.3187080135       14.1032281720       10.8293894400
  H         9.7084969139       14.4349692016        9.1527637533
  C         8.3519422033       12.8071444294        9.3524008400
  H        20.5973875858       14.4737683982       15.5375277040
  H        21.8520688055       13.5213765966       14.7651064227
  C        21.4063707067       15.4188241982       13.7027974606
  C        13.2701761845        7.2066867689       19.0989859943
  S        20.6127625332       13.6303486431       -4.9915894852
  C        20.1067125841       16.7746255662       -4.9272576434
  H         8.6877171419       12.3732012401        8.3446161073
  H         8.1763461834       11.8972525353        9.9380428451
  C         7.0340820698       13.6135953175        9.2270406314
  H        20.5465448272       15.9988963745       13.2783080439
  H        21.9896904198       15.0765027247       12.7876297625
  C        22.2424695584       16.3771874271       14.5126090622
  H        13.4292639757        6.1861784837       19.0700780248
  C        12.8545995180        7.6181234485       20.3645318236
  H        20.8225661795       16.1922808190       -5.5096843988
  H        20.3912280529       17.7334998295       -4.7097659992
  C        18.6906265720       16.7906988488       -5.6701839948
  H         6.5765033897       13.2806144525        8.2676812355
  H         7.3358924617       14.6781543474        9.1780592321
  C         6.1784824977       13.2243035865       10.4167641853
  H        23.0828618584       15.8226184467       14.9031697019
  H        22.6385554027       17.1155424599       13.7746800601
  C        21.5471719758       17.2134071045       15.5516547941
  S        12.3184250182        9.1917984332       20.7785747980
  C        12.6667213928        6.6142536471       21.4391818499
  H        18.7673980724       16.4625035391       -6.6537733126
  H        18.1892458450       17.8075058789       -5.5651283758
  H        17.9789995485       16.1045191509       -5.1092179363
  H         5.8987941700       12.1600808379       10.4602412827
  H         6.6342562658       13.3869284121       11.3904709097
  H         5.2171493886       13.7833927333       10.3272743514
  H        20.7354486670       17.8479644178       15.1439492328
  H        21.0943822561       16.4468452607       16.2423812090
  H        22.1959631522       17.9561420874       16.1069248553
  C        11.8764642214        8.4682599443       22.3020862554
  N        12.1099031093        7.2105465905       22.5069956425
  O        13.0010418760        5.4490747001       21.3031701721
  S        10.7831743311        9.2924375125       23.4530469137
  C        11.6969387338        6.4267429352       23.6235371738
  H        11.3845324701        5.4747508662       23.2299209427
  H        10.7809955644        6.9094256216       24.1332065733
  C        12.8024684704        6.2223381882       24.5919364327
  H        12.5668778096        5.4693689325       25.3062389194
  H        13.0723306967        7.1089080049       25.2245705442
  H        13.7314383719        5.8549295323       24.0848978926
