352
 i =    50400, time =    50400.000, E =        25.4753588644
  H         9.4571760001        6.4076958199       32.2142603465
  C        10.5099287286        6.4037645332       32.2234631588
  H        10.6573169383        7.4752941765       32.2638290166
  C        10.8907570524        5.7268939282       30.9168444035
  C        11.2383792185        5.7703358763       33.4399206984
  C        10.3036494120        6.3938008335       29.6165903191
  H        11.9653977320        5.8702925181       30.8837920091
  H        10.6060137735        4.6866750506       30.9664950858
  H        11.1786287708        6.4811310478       34.2796816827
  H        10.8984708615        4.7647056899       33.7321275095
  H        12.2561260365        5.6925845725       33.0541726226
  C        10.0366621299        5.3718978032       28.5146030520
  H        11.0381340075        7.1182187675       29.3223681774
  H         9.4182268802        7.0128924303       29.8730620357
  C        10.3153929424        5.8882677133       27.1332594218
  H        10.6933627993        4.5406734785       28.6560636895
  H         9.0036192082        5.0987017233       28.6055717063
  C         9.3426019217        5.2748697564       26.1139240226
  H        11.3357571224        5.9446667841       26.9534325346
  H        10.0401253581        6.8944729878       27.0965003219
  C         8.0600577306        5.9859289315       26.1613262665
  H         9.8075316377        5.4564694965       25.1320966967
  H         9.2642743038        4.2586697188       26.5052690428
  C         7.0482473526        5.2096033481       25.3489732847
  H         7.7436137472        6.1425071188       27.2162671312
  H         8.1981398157        6.9897120555       25.8308756940
  C         6.8362033995        3.8061575091       25.9810823676
  C         7.4959466904        4.5114264148       24.0780809995
  C         5.7121608432        6.0200761337       25.1558725829
  C         7.1169075112        2.6811769892       25.1993012524
  C         6.4444540513        3.4498232007       27.2244335194
  C         7.6085670316        3.1627589355       23.9594960363
  C         8.0008161248        5.2531889438       22.9514821235
  H         5.8152162241        6.8168751696       24.3957960719
  H         5.4552301369        6.5974989328       26.0658657054
  C         4.5672847894        5.2230291410       24.5698969955
  S         6.7811458631        1.1168325561       25.9929039201
  C         6.2737810687        2.1114817818       27.3767353491
  H         6.1096621235        4.2174972793       27.8965020733
  C         8.1771589947        2.5974314623       22.8653371528
  H         8.0920636259        6.3249651145       23.1170015166
  C         8.5646959866        4.6465075688       21.8327832466
  H         4.8836872249        4.6673451643       23.5694467812
  H         4.4058193465        4.4232402401       25.2181543589
  C         3.3048860378        6.0759161899       24.4922743470
  C         5.7617281829        1.4274734141       28.6278335290
  C         8.6069344833        3.3125330483       21.6954295992
  H         8.2825450479        1.5104852962       22.9573243194
  C         9.0796312082        5.0763942154       20.6494054863
  H         2.6633850749        5.3664031269       24.0039553100
  H         3.4267618061        7.0701383804       23.9886982066
  C         2.6149116897        6.3771880210       25.8264322061
  C         5.7537233037        0.0340105206       28.8849239507
  C         5.1318343347        2.2644975720       29.6932659035
  C         9.0925713705        2.6246113213       20.4186623727
  C         9.2971096833        4.0130165051       19.8011182432
  S         9.1905529794        6.6043561691       19.8886990171
  H         1.8104820062        7.1024978897       25.7003463447
  H         3.3843406104        6.8691854455       26.4181089915
  C         1.9833001038        5.1727559030       26.5628603737
  N         6.2504182459       -0.9213378562       28.0392687563
  C         5.4080134251       -0.4564867223       30.1298429826
  C         4.6672664659        1.8224700279       30.9095515480
  H         5.0209338179        3.3249353064       29.4805232579
  C         8.0059208900        1.8393037001       19.6283545376
  C        10.3456877843        1.6791018040       20.6661850462
  C         9.6657793308        4.4438850821       18.4808130247
  C         9.6453203003        5.8163998046       18.3324559712
  H         1.2911872089        4.7812421319       25.8625538839
  H         2.9021415773        4.6077454403       26.7546276978
  C         1.2815755508        5.4867180797       27.8196663792
  S         6.1933929488       -2.3780289595       28.7147424197
  N         5.6707042910       -1.8304367129       30.1601409513
  C         4.9801598046        0.3735049278       31.2356663665
  H         4.2088188897        2.4775881432       31.6103347983
  H         7.7979996932        0.9656731943       20.2266022520
  H         8.5578365636        1.5764520961       18.7463158459
  C         6.8043492679        2.5505642333       19.1930114478
  H        10.6262549929        1.3012283563       19.7665072361
  H        10.1173205209        0.8659583418       21.2208014922
  C        11.4986664839        2.5059820457       21.1809305759
  H         9.9487300069        3.5861270043       17.7954027244
  C         9.9598477199        6.5930880402       17.0783270326
  H         0.5334607160        4.6497203537       28.0618073163
  H         0.6895706363        6.4007188474       27.7038674473
  C         2.3254689198        5.5444771263       28.9721573890
  C         4.9190428042       -0.3145274149       32.4312977488
  H         7.0097712207        3.2329628308       18.3491599801
  H         6.4736514639        3.2239565822       19.9871955919
  C         5.6179460842        1.5265783934       19.0050028324
  H        11.2396722423        2.9871183819       22.1253674332
  H        11.7913502350        3.2514004561       20.4382230222
  C        12.7867333548        1.6624790973       21.3860818709
  C        10.1414725892        7.9699700608       16.9257376341
  C        10.3715720927        5.7869339538       15.8334994442
  H         2.9273291079        4.6604225299       28.9609851712
  H         2.9744889265        6.4751510900       28.8582033028
  C         1.5697680253        5.5282929094       30.3531281178
  H         5.1705338991       -1.3398442663       32.4118562442
  C         4.6671179217        0.2002470230       33.7021556541
  H         5.2709355320        1.3414096251       19.9572016517
  H         5.9520890978        0.6664803480       18.5511585561
  C         4.4872811234        2.0837059599       18.0895215674
  H        12.6622633851        1.0357195909       22.3189065297
  H        12.8784211565        0.9388136098       20.5621085194
  C        14.1088243451        2.4688931996       21.3960817199
  N         9.8618934310        8.8983099273       17.9417839828
  C        10.5052262624        8.6346979096       15.7361841056
  C        10.6768428492        6.4925772907       14.6192303469
  H        10.3176487371        4.7579879268       15.8847012899
  H         0.8522880244        4.7156939113       30.4649493048
  H         2.1359226675        5.5410224767       31.2599351461
  H         0.9813762229        6.4767347622       30.4310390629
  S         4.3496058030        1.8349920594       34.1722465321
  C         4.5693647849       -0.8035143709       34.8441662910
  H         4.1379350986        3.0581709141       18.3499858161
  H         4.9819852955        2.0356380111       17.1386327984
  C         3.2581012770        1.1600236777       18.0298767626
  H        14.0140863031        3.2388302932       20.6811916546
  H        14.9816076427        1.9249364701       21.0655408939
  C        14.3542471434        3.1650425919       22.7566947716
  S         9.9334824142       10.3606036999       17.3488756108
  N        10.3466887856       10.0358995455       15.7974604942
  C        10.7816991168        7.9602543427       14.5309658011
  H        10.8961653155        5.9420412609       13.7558283519
  C         4.0802975627        1.2387031063       35.8146484321
  N         4.2327543844       -0.0981270091       35.9802215317
  O         4.9619568457       -1.9694074062       34.7760478965
  H         2.6017049344        1.5418195397       17.3188114523
  H         2.7316569519        1.0944342449       19.0290279171
  C         3.5149956490       -0.2468399002       17.4819788484
  H        14.5373230614        4.1574742831       22.4898353479
  H        13.4857346318        3.1478897360       23.4149903544
  C        15.5542148341        2.7296540481       23.6439954001
  C        11.0357485450        8.6989948302       13.3395839057
  S         3.5592301983        2.1567600438       37.2316946319
  C         4.1974780360       -0.7396453583       37.3076699822
  H         3.9125605123       -0.1879553848       16.4434905980
  H         4.3080594576       -0.6815146415       18.0348396563
  C         2.3246225473       -1.1759676667       17.5565304016
  H        15.6474613258        1.6650071347       23.8143295083
  H        15.5024276067        3.1767602473       24.6258328553
  C        16.8583003750        3.2991630665       23.2015365420
  H        10.9084581009        9.7079792031       13.5009332883
  C        11.6178639399        8.3965698964       12.1434704402
  H         3.4344203878       -0.3247990518       37.9867426232
  H         3.9924846995       -1.7535323337       37.2765574275
  C         5.5422008338       -0.4844838190       37.8669618907
  H         2.5006420819       -2.2085530321       17.1734273062
  H         1.6256223616       -0.8473921673       16.7872389582
  C         1.7820564045       -1.2311987759       18.9943077577
  H        16.7993321833        4.3580760246       23.0227570009
  H        17.6268046844        3.1669483531       23.9596413376
  C        17.5615141031        2.6528353192       22.0119579422
  S        12.3702585338        6.8828667061       11.7532613039
  C        11.7814167491        9.4959586855       11.1503008842
  H         5.7309613623        0.5747400695       38.1036620465
  H         5.5759456060       -0.9637263155       38.9287076263
  H         6.4162177135       -0.8492562413       37.2675284145
  H         0.9568839794       -1.9136580695       19.1180373220
  H         1.3538425007       -0.3593785597       19.4804129438
  H         2.4889391294       -1.6856115894       19.6676255874
  H        17.3203701311        1.5983429870       22.0833780395
  H        18.6148067296        2.6838952779       22.0511933196
  H        17.3052948233        3.0724670948       21.0109215238
  C        12.5592923291        7.6478927788       10.1405155211
  N        12.2720020113        8.9500629539       10.0019535280
  O        11.4053102325       10.6489959148       11.3370411719
  S        13.1732061503        6.7566535622        8.6933936225
  C        12.4344120796        9.7455744841        8.7535586520
  H        12.8273585046       10.7243071302        8.9427648199
  H        13.2426703570        9.2956675458        8.0736379616
  C        11.0909061971       10.0041489816        8.0903441244
  H        10.8925654482        9.2062728338        7.4335767104
  H        10.2645012840        9.9384519970        8.6981217241
  H        11.1909772033       10.9770205757        7.5426028408
  H        23.9106679418       10.8250092852        3.2579724408
  C        22.8933355102       10.8822580015        3.7253364078
  H        22.8698171264       11.8760077367        4.0662342177
  C        22.7791088569        9.9282227036        4.9354363545
  C        21.8736550460       10.6020356477        2.6664769773
  C        21.8713372708       10.5237996740        5.9947308291
  H        22.3009955573        9.0407138631        4.5079144561
  H        23.7758726365        9.7993233062        5.3054482743
  H        22.1181474166       11.2472118990        1.8060049751
  H        20.9026976611       10.8351682851        3.0619712120
  H        21.7653388550        9.5725521063        2.4124194305
  C        21.2122052292        9.2928976886        6.6404208948
  H        22.3565941159       11.1752911587        6.6672416742
  H        21.1980420208       11.2231468577        5.4310758680
  C        20.3489657729        9.4418343089        7.8546012452
  H        21.9097141682        8.5387045773        7.0043151263
  H        20.6054422069        8.9007606238        5.8208783074
  C        19.1811052367       10.4228867799        7.7546771829
  H        20.9786265309        9.8402266633        8.6663088899
  H        19.9937472626        8.5372674094        8.2748376252
  C        17.8483260148        9.8310500740        7.0948796071
  H        18.9340716994       10.7430301055        8.7690003881
  H        19.5421244592       11.2937897874        7.2658966698
  C        16.6419411591       10.8837432597        6.8625498354
  H        17.4430234167        9.0361152182        7.7299839173
  H        18.1097448813        9.4031575005        6.1688204080
  C        17.2015024366       12.2034328997        6.2157929367
  C        16.2425334468       11.6866501783        8.0705593324
  C        15.4363209856       10.3256967769        6.1067778037
  C        16.8784846993       13.3528550645        6.9115488078
  C        17.7935940967       12.4910643929        4.9755680250
  C        16.2565935820       13.0407394194        8.1160223848
  C        15.8954180474       11.0071984942        9.2723946242
  H        15.9149889202       10.0818627115        5.2005958495
  H        15.0744843087        9.3786110602        6.5466756982
  C        14.2559754826       11.2321412619        5.9195788618
  S        17.4810248472       14.8507895531        6.1807022377
  C        17.9599750357       13.8271236534        4.7900775062
  H        18.0885013519       11.6467770631        4.3309180733
  C        15.9809392409       13.6787979181        9.3163145115
  H        15.9246571100        9.8948973969        9.2395121947
  C        15.5279637792       11.6742166093       10.4056276601
  H        14.5873924348       12.1869161335        5.4794640871
  H        13.8092963439       11.4944430171        6.8719611108
  C        13.1408357603       10.5157649359        5.1218223760
  C        18.3781100909       14.4900915509        3.5269303320
  C        15.5265968674       13.0215820367       10.4639577957
  H        16.0290761808       14.7928034387        9.1801132157
  C        15.1923237587       11.3520059001       11.6877350625
  H        12.3822653334       11.3132531098        5.0476554822
  H        12.6931345611        9.5904266954        5.6607459601
  C        13.5384265413       10.0463506776        3.7267052635
  C        18.4186074754       15.8660311548        3.2530417416
  C        18.7450464608       13.5439248843        2.3899389431
  C        15.2597309000       13.7872804168       11.6218707774
  C        15.0812904293       12.4429617765       12.4960472845
  S        14.9129848441        9.8316057993       12.4615458782
  H        13.7645982136        8.9724610927        3.7750509663
  H        14.4506519801       10.4920152300        3.2260580487
  C        12.3015435886       10.2963041996        2.8325465049
  N        18.0655761760       16.9374041819        4.1513045334
  C        18.7702889405       16.3580473645        1.9834894865
  C        19.1076682183       14.0750654734        1.1644576632
  H        18.7773324925       12.4780146830        2.4596138880
  C        13.8749130617       14.5484203237       11.4600211171
  C        16.3552220137       14.6697162614       12.1138674665
  C        14.8868112664       12.0286143487       13.8286142732
  C        14.8016337695       10.6611659028       13.9868435242
  H        11.5017789611        9.7359649536        3.2998399199
  H        11.9735212844       11.3312862326        2.9232927395
  C        12.2706022705        9.8145320869        1.3995817714
  S        18.3164529756       18.3726351697        3.4408284220
  N        18.7667521430       17.7642593763        1.9485637919
  C        19.0091923461       15.5569529181        0.8677489328
  H        19.2557161929       13.3745719506        0.3851216381
  H        13.9461973393       15.4766771354       10.9043712085
  H        13.5962304359       14.9658932435       12.4686293144
  C        12.6862914906       13.7376847188       10.9707072552
  H        16.3726618303       15.6132041049       11.5284593079
  H        16.0078903835       14.9821003047       13.1114266430
  C        17.7640138135       13.9206496424       12.2437526689
  H        14.8083658928       12.7418249957       14.5635958610
  C        14.2318198833        9.9219128325       15.1474217798
  H        11.4022978122       10.1423879980        0.8177019535
  H        12.1987469345        8.7839362820        1.4077162136
  C        13.5675725253       10.2075537661        0.5602860172
  C        19.1937543336       16.1667057787       -0.4055867134
  H        13.0176133651       13.1508892145       10.1630577047
  H        12.3781534676       12.9696241155       11.7055803609
  C        11.4218694943       14.5328883299       10.5074285042
  H        18.1745051376       13.9836008477       11.2468017748
  H        17.7007370119       12.8736271890       12.6083164606
  C        18.6415206694       14.7275946880       13.1722268043
  C        14.0529078000        8.5587488099       15.2495842989
  C        13.8511863684       10.6759352584       16.3539612962
  H        13.9650407843       11.1683383713        0.8730333497
  H        14.3116397220        9.4590207736        0.7695428595
  C        13.3100226454       10.2061482266       -0.9065401658
  H        18.9575662300       17.2071021899       -0.4445553599
  C        19.4903169684       15.7293619328       -1.6594325009
  H        11.4894690028       15.4482483462        9.9076232181
  H        11.0333652525       14.9020948220       11.4447651875
  C        10.2714579482       13.6241703013        9.9485741712
  H        18.9134067822       15.6852875105       12.7380746221
  H        18.1360896473       15.0594797320       14.0343340311
  C        19.7924162660       13.8278593358       13.5570842025
  N        14.5439053098        7.6001199226       14.3672626625
  C        13.7067792979        7.8890933555       16.4332922756
  C        13.4140777510       10.0531431814       17.5187089166
  H        13.8597969616       11.7750195196       16.3774080785
  H        13.5005127941       11.1418836941       -1.4226171030
  H        12.2858589217       10.0710409271       -1.2965973509
  H        13.8507470100        9.4337690024       -1.4963287471
  S        19.9720479659       14.1810627643       -2.0707809832
  C        19.5968912040       16.7505885086       -2.7243347539
  H        10.6620461390       13.0499160994        9.1515878430
  H         9.9159698727       12.9340157350       10.7551225676
  C         9.0261138625       14.4088400062        9.5670922408
  H        19.9540799276       13.0414675645       12.7550218495
  H        19.5656079035       13.3580090695       14.5530923278
  C        21.0435669455       14.6525615177       13.7472911751
  S        14.3091078284        6.1035217737       14.9474944954
  N        13.6983088014        6.4865739812       16.3711388257
  C        13.2732436611        8.6021712754       17.6276409229
  H        13.0989825247       10.6592261112       18.4367101222
  C        20.2919441796       14.7929916801       -3.6278345727
  N        20.0695311718       16.1374961972       -3.8251510803
  O        19.2198400920       17.9189032438       -2.6766779809
  H         8.6313075818       14.8244341952       10.4031135856
  H         9.4346991884       15.1036885569        8.8505285535
  C         8.0158796444       13.4938382313        8.9110760268
  H        21.8980025527       13.9693382474       13.7278838247
  H        21.2858723801       15.3322913238       12.9092971457
  C        21.2444939565       15.4122806329       15.0546439294
  C        12.9276820466        7.8729407329       18.7630941486
  S        20.5733272319       13.8391727539       -5.0677667979
  C        20.1801655733       16.8802971953       -5.0684181312
  H         8.4264806340       13.0521436755        7.9843243011
  H         7.9141309783       12.6010836745        9.5515046173
  C         6.7146778391       14.2395704480        8.5501459011
  H        21.5888471932       14.6640751485       15.7941245591
  H        20.2903783587       15.8630988163       15.4610639973
  C        22.4206351865       16.3784836451       14.9104380170
  H        13.1115170426        6.7895578617       18.7205799750
  C        12.3601572505        8.2126534604       19.9493371145
  H        20.8278078113       16.3725572238       -5.7186457066
  H        20.5998108817       17.9304224546       -4.8838793991
  C        18.7813834242       16.9598241501       -5.7341071194
  H         6.4698378331       13.8274365490        7.6030747576
  H         6.9671012921       15.2540257729        8.2857042178
  C         5.5954380696       14.0293976571        9.5581173449
  H        23.3516359645       15.8276955253       14.8494402468
  H        22.2901168211       16.9195935703       14.0072183077
  C        22.4956146220       17.4457450539       16.0375425422
  S        12.0156552938        9.7585849247       20.5320246887
  C        12.1660956105        7.0633429224       20.8568507252
  H        18.6401914702       16.7405541761       -6.7917484546
  H        18.5020046649       18.0194068067       -5.5667689946
  H        18.0412875636       16.3337343736       -5.2092601609
  H         5.9226059087       14.4422442871       10.4797911137
  H         4.7169408642       14.5698707294        9.1663254979
  H         5.3880971633       13.0178073686        9.5782944186
  H        23.5203536850       17.6027646346       16.4288794611
  H        22.0988149069       18.4909064906       15.7994099316
  H        21.8873507086       17.1162118610       16.9397152412
  C        11.6102087544        8.9087325300       22.0126182768
  N        11.7505245730        7.5520367848       21.9870926553
  O        12.3582549694        5.8085805858       20.6609742180
  S        11.2015650894        9.6551907654       23.4936422903
  C        11.5946891985        6.7559828195       23.2084744553
  H        11.4720037835        5.7516340450       22.9238148497
  H        10.8326304668        6.9729954634       23.8842248081
  C        12.9127235172        6.7756719989       23.9925485378
  H        12.8374506338        6.2183567909       24.9558163610
  H        13.0326538930        7.8075978431       24.2540582230
  H        13.6874540072        6.4611855374       23.2461074346
