352
 i =    96100, time =    96100.000, E =        25.0146709923
  H         9.5695600740        5.7344079123       31.2881803373
  C        10.3246383932        6.3611918777       31.7857398284
  H         9.8779175169        7.0354234940       32.5276740629
  C        11.0703266963        7.1947077288       30.6857739051
  C        11.2329698690        5.4887207193       32.5483361693
  C        11.4187460647        6.3895762349       29.4309329538
  H        10.4870276455        8.0535028853       30.4434866108
  H        11.9669782164        7.6020605094       31.1192513483
  H        12.1780776283        5.3193268656       32.0198115048
  H        11.5569597429        5.9604916078       33.5313019929
  H        10.8782596542        4.4539770525       32.6764773402
  C        10.1994878623        6.0650340123       28.5268820396
  H        11.9724103397        5.5520546406       29.6854593964
  H        12.1486949451        6.9672048120       28.9003790518
  C        10.7658234463        5.7281989247       27.2105850892
  H         9.7714463018        5.1086876575       28.9365571965
  H         9.6080250716        6.9496756214       28.4943244419
  C         9.7583125743        4.8602764805       26.3942880638
  H        11.6807047583        5.2103109043       27.3335791811
  H        11.0155149668        6.6403380985       26.6404378217
  C         8.5653290870        5.6616441395       25.9555831176
  H        10.3795118595        4.4635061533       25.5821305217
  H         9.4694978556        3.9826288497       26.8873874349
  C         7.5687806582        4.7660598412       25.2467371323
  H         7.9564330624        6.0389461492       26.7289204052
  H         8.9577423082        6.4340582703       25.2539376454
  C         7.1732224699        3.4763690124       25.9757622023
  C         8.0714755918        4.0244963906       24.0332181280
  C         6.2261813652        5.3558933905       24.7683567722
  C         7.2960886846        2.3499287995       25.1762951026
  C         6.7220050837        3.1644858572       27.2133905799
  C         7.9376661665        2.6552170333       23.9745413962
  C         8.6617212408        4.7446418987       23.0312111428
  H         5.5810503212        4.6705653396       24.1389116621
  H         6.5251289943        6.1418446506       24.1849107767
  C         5.2975585636        5.9216520612       25.8462277317
  S         6.8333250031        0.9077011456       26.0031247353
  C         6.4468642074        1.8654534104       27.4607398642
  H         6.5321004932        3.9293063981       27.9617899823
  C         8.3949681048        2.1040806105       22.8261782805
  H         8.7152307422        5.8602474558       23.0718293053
  C         9.0170862201        4.1353729041       21.9082136482
  H         5.0795947325        5.1324336879       26.4779607386
  H         5.8089988497        6.8124244805       26.3718399363
  C         4.0138573173        6.4701488951       25.1986054462
  C         6.0648544142        1.3496650055       28.8335553127
  C         8.9011042752        2.8150762519       21.7374434328
  H         8.3792825124        0.9811880590       22.6931531763
  C         9.3686097698        4.5531385132       20.6932185168
  H         3.4816552826        5.7772096221       24.4800166678
  H         4.3094078629        7.3521570274       24.6237468760
  C         3.0563128255        6.8531648197       26.2687665869
  C         5.9882160416       -0.0250384871       29.1694313959
  C         5.4745699723        2.2773186851       29.8316563107
  C         9.2314129026        2.1971182111       20.4327672235
  C         9.4907815544        3.5113811514       19.8093914238
  S         9.4991219238        6.1708500615       20.0829741808
  H         2.2324328875        7.4376025059       25.8494604525
  H         3.5064219338        7.2394137397       27.1623603640
  C         2.3181923708        5.5468256643       26.5551346729
  N         6.3939218072       -1.0251399143       28.2512867836
  C         5.6629151831       -0.4607976407       30.4035386408
  C         5.2302758927        1.8734333352       31.1442105689
  H         5.4717070910        3.3338793622       29.6327819843
  C         8.0999173551        1.4067068851       19.7711907071
  C        10.4683999434        1.3040012388       20.5386618168
  C         9.8816111202        4.0050395726       18.5538710371
  C         9.9104298260        5.3722865605       18.5842841094
  H         1.4972918604        5.5286529416       25.8624978627
  H         2.9846694866        4.6911449683       26.4971777875
  C         1.6055711529        5.3162790699       27.9525367973
  S         6.3439610464       -2.4875140386       29.0037921381
  N         5.7416426596       -1.8454170467       30.4717139406
  C         5.3733501982        0.4247316347       31.4825933657
  H         5.1437256063        2.5508030151       31.9314123746
  H         8.0086836772        0.4718811810       20.3470444481
  H         8.3753185849        0.9741684900       18.8156091838
  C         6.7199962825        2.1636872319       19.7167541303
  H        10.6450204706        0.8656362384       19.6175380558
  H        10.2485423254        0.5003734946       21.2991526951
  C        11.7070763182        2.1580998853       20.9332899267
  H        10.1297889204        3.3983116149       17.6766290876
  C        10.1505597511        6.2010122369       17.3332582252
  H         1.0147330720        4.4405136814       27.9675334134
  H         0.8918662765        6.0980242663       28.0072587950
  C         2.5499067132        5.3178637580       29.1672423214
  C         5.3353218710       -0.0124917407       32.7673285578
  H         6.8134938553        3.2080712049       19.4416842001
  H         6.2805491598        2.1443055526       20.7903152801
  C         5.7952086646        1.4420517364       18.8269266882
  H        11.5226652415        2.9025243190       21.6746050004
  H        12.0247827516        2.6234291483       20.0549024876
  C        12.9762079404        1.5005362455       21.4317974186
  C        10.1493640658        7.6110928994       17.2585571041
  C        10.3094552923        5.5309247828       16.0692958768
  H         2.9759684391        4.3575681043       29.3171036249
  H         3.3002531608        6.0573165883       28.9719808501
  C         1.8467204619        5.7684132903       30.4863547749
  H         5.6646466340       -1.0463081291       32.8274849522
  C         5.0241448013        0.4521330223       33.9822530393
  H         5.6164731183        0.4476817700       19.2271117813
  H         6.3620887729        1.4635293206       17.8833730603
  C         4.5544033197        2.3097673130       18.7077506764
  H        12.7776242377        0.9232506564       22.3102151012
  H        13.4009695515        0.8012258269       20.7224446219
  C        14.0257805847        2.5213601421       21.8276600470
  N         9.9827930207        8.4873021113       18.3402570478
  C        10.3976898783        8.3207432575       16.0633631212
  C        10.5800786507        6.1629279875       14.8161207068
  H        10.2750398371        4.4690180343       16.0127846277
  H         0.8071998581        5.3128684876       30.5669734791
  H         2.3926334774        5.3722933504       31.3222358133
  H         1.7790470716        6.8165705308       30.6138457273
  S         4.7114927577        2.0555348601       34.4324315649
  C         4.8067608902       -0.5523403691       35.0414253768
  H         4.4042869775        3.1491767327       19.4213607446
  H         4.4463570910        2.7428063267       17.6839147178
  C         3.2750244057        1.5309872096       18.8492325995
  H        13.4877069551        3.2207600122       22.4794062302
  H        14.5211403535        2.9100478208       20.9290051185
  C        15.1072264973        1.8177142111       22.6445966906
  S         9.9627338138        9.9944231762       17.8070432062
  N        10.3968226198        9.7091945555       16.2478139659
  C        10.6764469957        7.6689447580       14.8214375504
  H        10.6950375580        5.5178522878       13.9475633842
  C         4.3138779374        1.3344899560       36.0539778657
  N         4.3146470070       -0.0283915604       36.1668040913
  O         4.9866248818       -1.7664302521       34.9904327028
  H         2.3940898086        2.2365068520       19.1692710745
  H         3.3130486421        0.9504468123       19.7604980148
  C         3.1087307726        0.6974735499       17.6578251339
  H        14.6712459773        1.2059324528       23.4904382121
  H        15.6590047788        1.1625575351       21.9388529817
  C        16.0164892747        2.8297997849       23.3229868378
  C        10.9337396526        8.4129197877       13.6118765052
  S         3.8041197126        2.2591873474       37.4580458998
  C         4.2121512996       -0.7603443903       37.4228860496
  H         2.6638114074        1.1147022803       16.7263180929
  H         4.1167031766        0.3306818582       17.3610210423
  C         2.2183806847       -0.5763100402       17.8538319341
  H        15.4269700762        3.0845929837       24.2584722727
  H        15.9842610686        3.7335944850       22.7678481920
  C        17.3195923819        2.2459829155       23.7074035820
  H        10.6316676250        9.4840944564       13.6228361182
  C        11.5767031671        8.1056643882       12.3871368487
  H         3.5769756359       -0.2853588023       38.2907517600
  H         3.7479905004       -1.7848739594       37.1762665779
  C         5.6027543043       -0.9286954878       38.0234476855
  H         2.1006490091       -1.1734353245       16.8573422201
  H         1.2903780258       -0.3341089822       18.1866008961
  C         3.0063371159       -1.5310600851       18.7636953404
  H        17.8510274703        2.9017547245       24.4136160928
  H        17.1910692272        1.3937368955       24.3038475768
  C        18.3361473310        2.0787251533       22.5863740758
  S        12.2898608409        6.6866926171       11.9275185740
  C        11.7391241108        9.2523138397       11.3653138468
  H         6.3399474415       -0.1146921680       37.9681979013
  H         5.4562848617       -1.1491692355       39.1301510643
  H         6.1063151831       -1.8075177924       37.6549983973
  H         2.3121323510       -2.3425874866       19.0104465403
  H         3.2764859659       -1.1503115135       19.7456408439
  H         3.8347357963       -1.9093443270       18.2046382240
  H        19.2182657301        1.6195884548       23.0194380953
  H        18.7083495311        2.9806019900       22.0526674035
  H        17.8809717749        1.4409146103       21.8753692209
  C        12.6803608812        7.4595426922       10.3743587751
  N        12.4467258709        8.7835321143       10.2888884877
  O        11.1755820435       10.3988363591       11.4578518432
  S        13.1493015975        6.6485603061        8.9226769463
  C        12.6562209691        9.4862834082        9.0569655036
  H        12.9329647541       10.5132426245        9.2682540700
  H        13.6282359132        9.1705908826        8.7257063283
  C        11.4899619310        9.4120697089        7.9971421669
  H        10.4703090609        9.3982119079        8.3641674598
  H        11.6110486540       10.3892209226        7.5082493667
  H        11.6736970573        8.6113540436        7.2568893105
  H        21.4258365692       11.5659662672        3.9085416061
  C        22.1118609269       10.7259627288        3.8299171707
  H        21.4904902219        9.7906193213        3.8752441840
  C        23.1753884301       10.5831309249        5.0120369897
  C        22.7669821125       10.4771569702        2.4479718428
  C        22.5297583184       10.5494127247        6.3573490164
  H        23.6694050914        9.6347314657        4.8854036856
  H        23.8279070327       11.4764010266        4.9134190545
  H        22.9955491367        9.4805354630        2.3691390852
  H        23.6916526677       10.9672292028        2.2194351428
  H        21.9686890282       10.7142566121        1.7754040740
  C        21.7845458221        9.2456225848        6.6328696354
  H        23.3227878130       10.7205281701        7.1326187171
  H        21.9206012427       11.4216645397        6.3887840413
  C        20.4883067169        9.4599655981        7.3930347926
  H        22.5149777967        8.6303186034        7.2275532434
  H        21.6377346632        8.6184314096        5.7347206927
  C        19.3005518686        9.9978870611        6.5590779756
  H        20.8164071176       10.1802194783        8.1863117838
  H        20.2524964141        8.5651301863        7.9147101826
  C        18.1308041203        9.9083728255        7.4088917135
  H        19.6240842149       10.9990247436        6.5314895479
  H        19.1862394795        9.5769894978        5.4986198244
  C        16.9400744817       10.7209240992        6.9413450047
  H        18.4559763028       10.3441420641        8.3819285116
  H        17.8096208449        8.9172697783        7.5950180740
  C        17.2975749261       12.0576311074        6.2787490645
  C        16.3344592052       11.4187810387        8.1207164257
  C        15.8205086824       10.0315904887        6.0299133376
  C        16.9263332075       13.1445442359        7.1306083290
  C        17.7416423411       12.4492377825        5.0182268294
  C        16.3562879526       12.7465715215        8.2511301118
  C        15.8438667988       10.7535056395        9.2374181672
  H        16.3757611159        9.6355856547        5.1902567641
  H        15.4721684011        9.0198941531        6.2788298545
  C        14.6770641117       10.9309444955        5.6074646180
  S        17.2883685696       14.6382476559        6.4649801543
  C        17.8807432930       13.8026957393        4.9932398404
  H        17.9765602653       11.6626400976        4.2913800895
  C        15.9858694809       13.3582385254        9.4079549058
  H        15.8238694245        9.6657529363        9.1008472755
  C        15.4710493504       11.3163535546       10.4123017187
  H        15.0775208775       11.8076470219        5.0478809590
  H        14.1740464565       11.2860820216        6.4398131669
  C        13.6327141128       10.2962689163        4.6582521775
  C        18.3501989822       14.5311529058        3.7396708271
  C        15.6410392407       12.6724333211       10.5481345346
  H        16.2176984613       14.3734066170        9.3909581763
  C        15.1341560471       10.8699938023       11.6716305518
  H        12.6458141113       10.7339970779        4.7087477282
  H        13.5172400156        9.2350367924        4.9495654076
  C        14.1035784177       10.4156436653        3.1901264423
  C        18.4356207195       15.9739883547        3.5310814995
  C        18.8218602499       13.6995033623        2.5851795762
  C        15.3667930829       13.3744608505       11.8366121897
  C        14.9965269889       12.0279056810       12.4761372043
  S        14.9297430307        9.4026816896       12.5501400106
  H        14.9569443360        9.7752198513        2.9506262788
  H        14.2561654013       11.4724944344        2.9693245087
  C        13.0490205241        9.7856232348        2.2543983722
  N        18.0253505422       16.9311156356        4.4482886813
  C        18.6901935174       16.4865691277        2.2783729571
  C        19.0656837858       14.2439095021        1.3278187379
  H        18.9179976265       12.6610989523        2.6947982838
  C        14.2266576898       14.3856581824       11.7875022020
  C        16.6255488512       13.8559595833       12.4635796329
  C        14.7649935300       11.6793827918       13.8178230808
  C        14.6198187212       10.2986658633       13.9383450025
  H        13.0506857808        8.6822686930        2.4348734533
  H        12.0715170322       10.1205034080        2.6061382119
  C        13.3125663376       10.1323472189        0.7712602262
  S        17.8907368580       18.4144833508        3.7564497655
  N        18.4851298667       17.9024996553        2.2791887326
  C        19.0863091217       15.7460248804        1.1267355033
  H        19.4079588532       13.6120158747        0.5272163906
  H        14.5399157868       15.1084098490       11.0654413170
  H        13.9094903311       14.7423943292       12.7439911410
  C        12.9542201771       13.6517176608       11.2091138916
  H        16.8040178079       14.8801167632       12.2399519085
  H        16.2866943583       13.9087048692       13.5099914412
  C        17.8866102089       13.0059830350       12.3973982835
  H        14.7136158494       12.4304740408       14.5658778417
  C        14.3247909035        9.5294955756       15.2066991419
  H        14.2516988455        9.5996177095        0.5944974517
  H        13.4361342139       11.2020630999        0.6158862792
  C        12.2252138012        9.5381672993       -0.1757857605
  C        19.2692835678       16.4611917607       -0.0883747351
  H        13.2734088880       13.0669399661       10.3346190671
  H        12.6240693337       12.9075085009       11.9131464170
  C        11.7626233584       14.5742935525       10.9118335697
  H        18.3129004528       12.9958068360       11.3946696678
  H        17.6646541638       11.9493334257       12.5207634473
  C        18.8849464349       13.2878426154       13.5298143021
  C        14.2718297950        8.1140378861       15.3466036429
  C        13.9736566684       10.3249682541       16.4678214496
  H        12.3786986525        8.4871291909       -0.2193054370
  H        11.2226306272        9.7400970892        0.2921556429
  C        12.1402083834       10.2631911223       -1.5512335602
  H        19.3580556771       17.5694535664       -0.0626966142
  C        19.6720685150       16.0059477172       -1.3632951257
  H        12.1461270460       15.5065097616       10.4441793761
  H        11.3910066353       14.9951637654       11.8791907415
  C        10.5790976736       13.8269440482       10.2232802761
  H        18.4356943324       13.6574517615       14.3891696467
  H        19.3963011653       12.3562863644       13.7744535475
  C        19.9182905153       14.3516782806       13.2154359056
  N        14.7350565415        7.1993496805       14.3903208948
  C        14.0405383067        7.5163200106       16.5445941530
  C        13.7187882363        9.6915024039       17.6895903610
  H        14.0565716681       11.4119126059       16.3832618334
  H        11.7046941173       11.2764955714       -1.4805250365
  H        11.4707877595        9.8346785935       -2.3038840801
  H        13.0953899366       10.3550110778       -1.9300629168
  S        19.7510950186       14.3822907324       -1.8196255948
  C        19.9368604998       16.9801834611       -2.4343707396
  H        10.0921044493       14.6892910179        9.7381221149
  H        10.8300894982       13.1243994483        9.3746855325
  C         9.6462235533       13.0157501627       11.1753641539
  H        19.5265250247       15.2805381114       12.7791482281
  H        20.4992758922       14.1325091007       12.3300842461
  C        20.7621493091       14.5239878586       14.4181928468
  S        14.6118927346        5.6667492550       14.9859176877
  N        14.0600750410        6.1052365429       16.4267540408
  C        13.5511600490        8.2207154114       17.7024796385
  H        13.4236867981       10.2839549702       18.6003731168
  C        20.0879279282       14.9807301502       -3.4393390069
  N        20.1803071955       16.3365040394       -3.5830543878
  O        19.6778627326       18.1575108990       -2.3152549668
  H         9.3799110453       12.0921054979       10.7074800659
  H        10.2828227025       12.7270940725       12.0783511358
  C         8.3976690037       13.8003249529       11.5423746845
  H        20.1557755008       14.8963856738       15.2232823349
  H        21.0870619977       13.5267912626       14.7439310042
  C        22.0539313452       15.3389563062       14.1813761016
  C        13.0978698272        7.4413235719       18.7869654330
  S        20.4573922954       14.0452533103       -4.8568616754
  C        20.2612904761       17.0685415710       -4.8683107478
  H         7.7975637650       13.2640968662       12.2653584011
  H         8.7281471016       14.7928897104       11.9155105336
  C         7.5431120384       14.0551126771       10.2883415684
  H        22.6349777414       14.9150420440       13.3583873668
  H        22.6959162984       15.2152551872       15.0346473024
  C        21.7591614298       16.8194674776       13.8654957950
  H        12.9927826904        6.3962849213       18.4980634062
  C        12.6973756986        7.8211837155       20.0744910475
  H        20.9902293908       16.6891544484       -5.4994280332
  H        20.7749215145       18.0258463407       -4.5579072998
  C        18.9053097747       17.1830662933       -5.5910777549
  H         8.0273312351       14.1356550375        9.3714462170
  H         7.0357262388       14.9453994822       10.4894504866
  C         6.6173739266       12.8292215919        9.9483877579
  H        22.6130446923       17.1786345733       13.3718027069
  H        20.9684698882       16.8687138844       13.1522520224
  C        21.4747486534       17.6615667900       15.0632887943
  S        12.3581835268        9.3005521998       20.8036279653
  C        12.6802737600        6.7558694956       21.0188241561
  H        18.2141773547       17.6533877670       -4.8864749797
  H        18.5442431470       16.2135520503       -5.9005573979
  H        18.9507592049       17.9543984673       -6.3477768020
  H         5.9651462665       13.2306603464        9.1613898176
  H         7.2377869290       12.0797623021        9.4138416662
  H         6.1505857871       12.2960053095       10.7922362724
  H        22.3673583882       17.8974110973       15.6220002133
  H        21.0323470386       18.6305095388       14.8249240134
  H        20.8069772968       17.1472016676       15.7749412065
  C        12.1595305266        8.5142756579       22.2460353064
  N        12.2184090926        7.1669591196       22.1844062281
  O        12.8682879097        5.6039738863       20.7412620362
  S        11.4866646843        9.2402960982       23.6850656972
  C        12.1564804529        6.3139759622       23.3086829910
  H        11.9041752829        5.2694026428       23.1498441217
  H        11.3505611258        6.6135171692       24.0249254047
  C        13.4395261027        6.2569358924       24.0673589199
  H        14.1029695843        5.6184875684       23.5186886932
  H        13.2927173837        5.8929568131       25.0487403406
  H        13.9284816745        7.2089122654       24.1768047716
