352
 i =    28400, time =    28400.000, E =        24.4638180415
  H        11.6246346592        7.1199114531       32.5703094803
  C        11.5334581773        6.0169907963       32.4620789511
  H        12.4659121335        5.6299321307       32.1679978369
  C        10.7175040406        5.7133485411       31.1809468066
  C        11.2625327098        5.3257091084       33.6815849309
  C        11.4010713341        6.0508052689       29.8352579184
  H        10.5036233426        4.6366644055       31.1850655145
  H         9.7115875839        6.2478960739       31.2688532181
  H        11.4274109876        4.2912994294       33.4280178217
  H        12.1514916372        5.6403255702       34.3120086726
  H        10.2146148177        5.4540603179       34.0532702927
  C        10.7156944176        5.2033194260       28.6646997245
  H        12.4628307747        5.8765051173       29.8032101751
  H        11.1758823678        7.1387740261       29.6717697460
  C        10.5195391126        5.9669640782       27.3298692041
  H        11.3487983129        4.3780261144       28.3170593875
  H         9.7662461960        4.7721131759       28.9329351419
  C         9.6310279571        5.2978781287       26.3070114372
  H        11.5019325505        6.1688985934       26.8602811688
  H        10.1046573876        6.9176967840       27.5031866236
  C         8.2573443422        5.9431636758       26.1793005289
  H        10.1076995364        5.1551906103       25.3315946050
  H         9.5297805625        4.3076967230       26.7407511566
  C         7.1570941766        5.1795978615       25.3691161694
  H         7.7728617735        6.2317524384       27.1550440326
  H         8.4235635953        6.8967003173       25.6518115727
  C         6.8812793606        3.8594429113       26.1104499263
  C         7.6752060200        4.5138549540       24.1815318733
  C         5.9013763870        6.1126245028       25.1047551883
  C         7.3009214825        2.7471394265       25.3813963967
  C         6.3344925517        3.4857111494       27.3511018555
  C         7.7162579776        3.1587686847       24.1147393564
  C         8.1405777264        5.2227238188       23.0378018273
  H         6.2428152452        7.0160809863       24.6037302904
  H         5.6719068562        6.5198551316       26.1212659714
  C         4.6572683988        5.3628832781       24.6062108826
  S         7.0693608878        1.2944767402       26.2779629751
  C         6.4004961592        2.1530660346       27.6289600790
  H         5.9669179369        4.2176251501       28.0232104409
  C         8.0929451034        2.5565292633       22.9516185698
  H         8.2133738481        6.2840241119       23.1614518813
  C         8.4408324432        4.5626680298       21.8998124487
  H         4.8636093828        5.0020041937       23.5964995769
  H         4.5837247262        4.4366287117       25.0602790755
  C         3.4168843064        6.2533324536       24.6138686263
  C         5.7974361821        1.4273780209       28.7780445318
  C         8.4849243428        3.2659229943       21.8411321206
  H         8.0375700451        1.4707286890       22.9013938503
  C         8.8385882743        5.0016833620       20.6584244122
  H         2.6087851342        5.8319389000       23.9551628500
  H         3.7322413248        7.2956787568       24.2629160617
  C         2.7460403101        6.3560163940       25.9696580701
  C         5.8513847687        0.0312278062       29.0433694028
  C         5.3012200460        2.3245214103       29.8808544666
  C         8.9253425725        2.5976095437       20.5556182855
  C         9.1480476714        3.9373343616       19.8327890426
  S         9.1531791627        6.5374939693       20.1044204848
  H         1.9719802037        7.1116688184       25.8516217326
  H         3.4414290708        6.8629442591       26.6045479824
  C         2.2220066858        5.0242157058       26.6340862119
  N         6.3988071325       -0.9237474953       28.1442460062
  C         5.5442710394       -0.5015418576       30.2893550479
  C         5.1235438830        1.7653120587       31.1476398377
  H         5.1956150841        3.4212628736       29.8265227977
  C         7.7894001958        1.9345587061       19.7101612061
  C        10.1131760557        1.6240679237       20.8107862025
  C         9.5279172790        4.4681139838       18.5659731564
  C         9.6731371989        5.8664729286       18.5568520088
  H         1.5465131572        4.5931303313       25.9904080010
  H         2.9647813819        4.2709518505       26.8331804354
  C         1.4466272905        5.2332222896       27.9719789425
  S         6.3140053366       -2.4469589515       28.8209958621
  N         5.7740464970       -1.9045361834       30.2797477698
  C         5.2760228848        0.2870567901       31.3864792511
  H         4.7576931866        2.4011850308       31.9557935764
  H         7.5234740873        1.0034705280       20.0455815284
  H         8.1643968978        1.7609678390       18.6809227797
  C         6.4852214825        2.6693139774       19.6010594457
  H        10.3167793664        1.1187483875       19.8512918999
  H         9.8700327437        0.9652897474       21.6052957840
  C        11.3690092438        2.3869021451       21.1839564906
  H         9.8230766825        3.7326614129       17.7847048583
  C         9.9666886314        6.6350088806       17.3410749569
  H         0.8565510078        4.4069833284       28.2358793816
  H         0.8500661375        6.1067004031       27.7508014157
  C         2.3911944133        5.4280049978       29.1455391487
  C         5.0262170580       -0.4324507099       32.6252914888
  H         6.6835695045        3.5025954122       18.8895964976
  H         6.2054432447        3.0472350494       20.5394142864
  C         5.3825968678        1.7564295400       19.1570298723
  H        11.3328429747        2.7909749974       22.1568739346
  H        11.4257169356        3.3050179355       20.5370049369
  C        12.6635414148        1.5724983328       20.9799167284
  C         9.9426548023        8.0362845357       17.2089422466
  C        10.1078485832        5.8913618189       16.0526823149
  H         2.9700932588        4.4679547859       29.3104186740
  H         3.1861664071        6.1104137058       28.8967165177
  C         1.8021254224        5.7448671660       30.4984186724
  H         5.1480603457       -1.4865289493       32.5315743014
  C         4.6934321029       -0.0384936409       33.8454645111
  H         4.9058216782        1.4497673362       20.1382254639
  H         5.6436334289        0.9353511962       18.5262096825
  C         4.2762576282        2.6116419254       18.4631016868
  H        12.8538287333        0.8022488225       21.7164534124
  H        12.6448522561        1.0112926152       20.0333346201
  C        13.8644568488        2.4138319020       20.9925851787
  N         9.5610126451        8.9150781810       18.2805473837
  C        10.1618998902        8.6599860588       16.0287238422
  C        10.1805937556        6.5421260971       14.8033277655
  H        10.1932803874        4.7764147043       16.0726139713
  H         2.6178120582        6.1246515241       31.1312439648
  H         1.1376719183        6.5415749792       30.5107590669
  H         1.2435839949        4.9219027768       30.8700707946
  S         4.3462690359        1.5695742538       34.3597943485
  C         4.5580427903       -1.0310626488       34.8689672900
  H         4.0987799214        3.4672849685       19.0874983644
  H         4.6734631675        3.1368408523       17.6061991234
  C         2.9697559119        1.8257120122       18.2929699389
  H        13.7201104183        3.3249436781       20.3715492416
  H        14.5032018802        1.7527070741       20.4321399260
  C        14.3790201678        2.9585343112       22.3160914546
  S         9.6191853301       10.4187783784       17.6798946987
  N        10.0856856376       10.0625307078       16.1513361730
  C        10.4322298340        7.9794372666       14.7886867651
  H        10.2451045129        6.0250799106       13.7989778071
  C         4.1076157274        0.8983581685       35.9722883447
  N         4.2267137989       -0.4439742974       36.0539558040
  O         4.8066111133       -2.2541632649       34.7076975423
  H         2.4812290379        2.5771613643       17.6802925598
  H         2.4564193453        1.5667504979       19.1286676357
  C         3.0722133842        0.6457944969       17.2967016067
  H        14.9184206218        3.8808628888       22.2057022289
  H        13.4364011667        3.1949026099       22.8951084425
  C        15.0872170449        1.7672838835       22.9962960409
  C        10.7737342125        8.6981512149       13.6118075100
  S         3.4940508923        1.7956082339       37.3537376845
  C         4.0533395271       -1.2847627697       37.2602378264
  H         2.2173119048        0.5505174967       16.6688682848
  H         3.9534998612        0.8886214924       16.6675012695
  C         3.2470015626       -0.6704131081       17.9767353131
  H        14.9911556347        0.8382816704       22.3834554739
  H        14.7209136116        1.5961618075       24.0029119168
  C        16.5979039395        2.0013834560       23.2089107865
  H        10.5538253841        9.7365655091       13.5306760672
  C        11.3181394127        8.2970952002       12.4084440182
  H         3.5834155715       -0.7343522451       37.9990683897
  H         3.4217416550       -2.2246888394       37.0801473179
  C         5.4181738958       -1.6256337948       37.8268427551
  H         3.7807809261       -0.6484436661       18.9333500115
  H         3.9431015571       -1.2669445057       17.4947749064
  C         1.9766421799       -1.3824019373       18.3199101099
  H        16.7934447338        2.7462672752       23.9538663103
  H        17.1591384232        1.2100213711       23.6903322617
  C        17.4077305998        2.3606500461       21.8923755997
  S        11.7791179197        6.7067678079       11.9547320965
  C        11.6235598371        9.2650959439       11.3652372550
  H         5.4827854468       -2.7504379317       38.1308761255
  H         6.0680111343       -1.4111709590       37.0442871256
  H         5.6639468823       -1.0673541127       38.7269923802
  H         2.1452791827       -2.0791618373       19.2152344999
  H         1.5839662046       -1.9452192839       17.4997303489
  H         1.1557298998       -0.7992469138       18.6851962656
  H        16.7855989326        2.3908803593       20.9936111854
  H        18.1336985727        1.6203067388       21.7161656372
  H        17.9123368182        3.3327446909       21.8666815024
  C        12.3084170927        7.3286863983       10.4285458895
  N        12.2399682955        8.6888742805       10.3498700760
  O        11.5229643484       10.4652324903       11.4926954816
  S        13.1122801513        6.3870832571        9.2326672795
  C        12.4709401211        9.3836276355        9.1633824996
  H        12.8660554330       10.3470163057        9.4814280315
  H        13.3527288999        9.0005164748        8.5946234653
  C        11.1843112581        9.5001705256        8.3492290922
  H        11.1130259213       10.4902192216        7.9085666372
  H        11.2773215215        8.7717879570        7.5722199187
  H        10.3396783098        9.1850768508        8.9547848339
  H        21.1614348772       11.6450535218        3.1191462140
  C        21.6808643028       10.7220851451        3.1707537035
  H        20.9129187513        9.9375296591        3.2768925993
  C        22.6528378513       10.7796875715        4.3154086499
  C        22.1728381301       10.5754726960        1.8204899372
  C        22.0607193741       10.9418156160        5.7407970107
  H        23.1142199747        9.7918773815        4.2586697652
  H        23.5032740427       11.4706355710        4.0193515132
  H        22.9302831560       11.3876686453        1.5896682004
  H        21.3277598089       10.7378405491        1.0866535419
  H        22.5423653843        9.5894458177        1.6049031540
  C        21.2126895584        9.7874597041        6.2430019261
  H        22.9391467341       10.9310438491        6.4627050836
  H        21.5955529339       11.9097190183        5.8206674573
  C        20.4505670797        9.8674522968        7.6319506385
  H        22.0008310901        8.9642195245        6.2397459399
  H        20.4786533147        9.4365824374        5.4714688639
  C        19.1804318043       10.7466415810        7.6029090549
  H        21.1235163486       10.2042462379        8.3687047453
  H        20.2940385023        8.8555657994        7.9463997733
  C        17.9238648227        9.9882851361        7.0502054730
  H        18.9841996334       11.1127004193        8.6250485084
  H        19.4641773433       11.6585365730        7.0548732841
  C        16.7058620960       11.0337056319        6.8943977931
  H        17.6644307012        9.2201852102        7.6910974240
  H        18.1398525907        9.4610810623        6.1349280245
  C        17.1625318845       12.3870252292        6.3187483917
  C        16.2811661427       11.7550823949        8.1133835332
  C        15.4546385391       10.5204753889        6.1426117855
  C        16.8670248148       13.5120220699        7.0723483580
  C        17.5565425452       12.7260634878        5.0790534680
  C        16.3416308072       13.1176080751        8.2807268025
  C        15.8519822824       11.0884386921        9.2724971012
  H        15.8421045598        9.9732064008        5.3321118461
  H        14.9274694233        9.8025997240        6.8337141882
  C        14.4028657913       11.5745920197        5.7930506555
  S        17.1654830796       14.9803847876        6.2801638388
  C        17.6933689754       14.0800266436        4.9087539572
  H        17.6889102689       11.9632283704        4.3454252826
  C        15.9978449042       13.7431232306        9.4460810707
  H        15.8343753158       10.0001463247        9.2368169572
  C        15.5666445617       11.7005818510       10.4678135651
  H        14.7431873036       12.4697859510        5.3036905996
  H        13.8292504237       11.9697746479        6.6754642347
  C        13.4038102551       11.1075223227        4.7454650843
  C        18.1929448070       14.7502890491        3.6998668246
  C        15.6428817294       13.0498935854       10.6321478060
  H        16.0697807679       14.8548544247        9.4148337671
  C        15.1619434247       11.2732200567       11.6919787615
  H        12.5310304129       11.7661901915        4.8727928478
  H        13.0850185140       10.0810467264        4.9370225702
  C        13.9112965614       11.3380153797        3.3087197709
  C        18.2649893922       16.1543345075        3.4889170809
  C        18.6137976146       13.8843469095        2.5385537449
  C        15.2360763766       13.6722484526       11.9330683212
  C        14.9138816005       12.2979866713       12.5923957098
  S        14.8590694999        9.7308279092       12.3330618694
  H        14.9373543052       10.8724238817        3.1476619550
  H        13.7771921111       12.4117993663        3.0106371278
  C        12.9519174476       10.6688048546        2.3394964686
  N        18.0176434215       17.1095187299        4.5003121894
  C        18.5880240184       16.6524382316        2.2159360306
  C        18.9082679309       14.4267941177        1.2918097402
  H        18.5970489243       12.7716742447        2.6313398534
  C        13.9629587154       14.5145973762       11.7572134709
  C        16.3089126059       14.4773725556       12.6734733174
  C        14.4429371154       11.8155772677       13.8230712924
  C        14.3055523929       10.4542157211       13.8536480890
  H        12.7155295147        9.6131201325        2.6112200879
  H        12.0198449830       11.2157993836        2.5800728791
  C        13.3997338656       10.8105884560        0.9202891291
  S        18.1097369387       18.5842681719        3.7889306711
  N        18.4627603143       18.0790014910        2.2283969134
  C        18.8306117316       15.8668519749        1.0742786578
  H        19.0933704913       13.7438985521        0.4892990441
  H        14.1747468411       15.3747287041       11.1366070387
  H        13.7296832439       14.9676381516       12.7199238606
  C        12.7697937982       13.6658113207       11.1008769346
  H        16.5876684110       15.2544159418       12.0057762149
  H        15.9003716737       14.9337860879       13.5807216385
  C        17.5810413845       13.6675613163       12.7871512353
  H        14.3952440124       12.5097230911       14.5986589786
  C        13.9934215360        9.6075668303       15.0368284420
  H        14.4278153026       10.5246787381        0.8628044858
  H        13.3347554249       11.8365989319        0.6115717701
  C        12.6512094464        9.9320489906       -0.0167360162
  C        18.9524199464       16.5566345622       -0.1885972326
  H        12.8987824382       13.1813121206       10.2071843960
  H        12.6001798706       12.8563300626       11.8299186030
  C        11.4999099573       14.5141462503       10.9770309164
  H        17.8374582457       13.1968348684       11.7887014350
  H        17.5163700917       12.7871387144       13.4631940006
  C        18.8073660554       14.4178742585       13.2645678016
  C        13.9577115015        8.2250330325       15.1787356912
  C        13.5838699105       10.3873889980       16.2444332712
  H        13.0991629793        9.5941465612       -0.9299496528
  H        12.4468994296        9.0388555555        0.5477946164
  C        11.2599137990       10.5352033623       -0.3924395835
  H        18.8819984345       17.5700169006       -0.1295289821
  C        19.2932907024       16.1369387036       -1.4527634993
  H        11.6174052032       15.3879804141       10.2596059435
  H        11.2054344348       14.8782046812       11.9530023021
  C        10.2456353302       13.6108280772       10.5804810787
  H        19.3438870034       14.8309290994       12.3891846532
  H        18.4359352267       15.2228021688       13.9067402297
  C        19.7060488195       13.6122238369       14.1850332733
  N        14.1298287415        7.2996534088       14.1004330681
  C        13.6376665489        7.5881188204       16.3662544693
  C        13.3186238055        9.8021436029       17.4863962808
  H        13.6135630032       11.4514840880       16.2187396190
  H        11.5150919182       11.5169123961       -0.8809221060
  H        10.5817121862       10.7589304239        0.4618592044
  H        10.7940562963        9.8533739328       -1.0143193696
  S        19.6914436410       14.6001173251       -1.9764869142
  C        19.3610489189       17.2134774283       -2.4799842424
  H        10.5408663476       12.9325732677        9.8394503946
  H         9.9320300556       12.9352761481       11.2976079512
  C         9.0376036595       14.3923060842       10.2541820955
  H        19.8117799401       12.5644652924       13.7536740143
  H        19.2598665654       13.6612288246       15.2188360623
  C        21.1591097996       14.0819459897       14.2801882797
  S        13.9824908260        5.8329115267       14.6890391961
  N        13.5608454396        6.1589705800       16.2269977010
  C        13.3290262247        8.2708095758       17.6164261122
  H        13.2737038787       10.4085535275       18.3698290627
  C        19.9196374412       15.3706970745       -3.5654714222
  N        19.7633530353       16.6984815857       -3.6450139499
  O        19.1965537170       18.3880326515       -2.2072195955
  H         8.5388928407       14.9653024283       11.0879285078
  H         9.2440765781       15.2544053610        9.5480304595
  C         7.9677715745       13.5328573739        9.4852689234
  H        21.6353923662       13.2906910833       14.8907298870
  H        21.7468337092       13.9266207379       13.3561650012
  C        21.4365589027       15.4747779318       15.0029226181
  C        13.0076763796        7.4917239591       18.7520014796
  S        20.3166423832       14.5349639722       -5.0799170034
  C        19.9021342459       17.4776053127       -4.8187510088
  H         8.4690355402       13.2713736969        8.5837288422
  H         7.7611646800       12.6134395432        9.9984764134
  C         6.6492208718       14.1338078361        9.1388370773
  H        22.4780566783       15.3517109097       15.2870777742
  H        20.9489499639       15.5159457744       15.9807600141
  C        21.3807250054       16.6963787030       14.1572117341
  H        13.1399744518        6.4549219829       18.6294363348
  C        12.4549737907        7.8474556443       19.9033794048
  H        20.6145295842       17.1887630302       -5.6090684965
  H        20.3418200309       18.3563305862       -4.4894689089
  C        18.5157665100       17.8602744241       -5.2972760490
  H         6.1074348271       13.3710614994        8.5120599480
  H         6.8609837120       15.1077465886        8.5313989889
  C         5.6935168612       14.4839272470       10.3129953769
  H        21.4557442887       16.3112773919       13.1238285020
  H        20.4022394040       17.2413012738       14.2136921113
  C        22.5386125985       17.6260022139       14.4127658167
  S        11.9957799548        9.4078914050       20.3973325305
  C        12.1384340892        6.8414274575       20.9446419665
  H        18.7009153158       18.8894700957       -5.7010503063
  H        17.7376346519       18.1081534121       -4.5026147437
  H        17.9765784638       17.3189671927       -6.0808107110
  H         6.1620612513       15.2605635863       10.9292379580
  H         4.7073973246       14.8387835889       10.0096346433
  H         5.4221965346       13.6429600666       10.9660964398
  H        22.1863156741       18.5803927842       14.6161663348
  H        23.1189335973       17.2771938485       15.2951586949
  H        23.3107588023       17.7220461201       13.6323042576
  C        11.5145996310        8.7012831248       21.9282107394
  N        11.6223990356        7.3363337393       22.0203495411
  O        12.5242910842        5.6915113319       20.8079595984
  S        10.8486668388        9.6604304229       23.2552591074
  C        11.4026289471        6.5362948669       23.2073579535
  H        11.0258553525        5.5532428502       22.9864211188
  H        10.7521483577        6.9563879663       23.8769947626
  C        12.7397738675        6.2915965082       23.9075582263
  H        12.6825477950        5.2606722332       24.3712114401
  H        12.7945786255        6.9998485230       24.7662316192
  H        13.6081317162        6.3279066562       23.1990850137
