352
 i =     1200, time =     1200.000, E =        50.2191692514
  H        11.7531984499        7.4080853478       32.3110650761
  C        11.4277249954        6.3419991178       32.3259753353
  H        12.2249300462        5.6398165930       32.1840130262
  C        10.4727902782        6.0458778135       31.2913887144
  C        10.9543203838        5.8945209551       33.7393876052
  C        11.0888673626        5.9241407306       29.8916235594
  H         9.9247391985        5.1094363451       31.3871565534
  H         9.6594384202        6.8166273473       31.2230898780
  H         9.9431612606        5.2723663038       33.6876075303
  H        11.8195330442        5.3693759730       34.2758944329
  H        10.8866179984        6.8483490725       34.3777127199
  C         9.9807031643        5.9572451230       28.7927672969
  H        11.6495376521        4.9848254720       29.8233952869
  H        11.7621270574        6.7781152307       29.7874390813
  C        10.6205770084        5.4601205052       27.4806607040
  H         9.1196322839        5.1692587966       29.1708241447
  H         9.5339712017        6.9753180767       28.5682672036
  C         9.4536530798        5.0127297927       26.5492835837
  H        11.2060309598        4.6561032736       27.6896278920
  H        11.1555428677        6.1377101637       26.9387412035
  C         8.2993803389        5.9488350337       26.3738867467
  H         9.9013752744        4.6908649840       25.6385202149
  H         9.0186493348        3.9688633788       26.9269764922
  C         7.2366980235        5.3060697554       25.4256112080
  H         7.9088080582        6.1477842280       27.3582892772
  H         8.6949231342        6.9222601692       26.1325436441
  C         6.7496890214        4.0098568565       26.0937981563
  C         7.8367821038        4.6138749996       24.2149869950
  C         6.0310581073        6.2964130432       25.1741865639
  C         7.0544893677        2.9652865892       25.2688893530
  C         6.1177978888        3.6223114922       27.2025544033
  C         7.6695913385        3.2970315098       24.0621444126
  C         8.3256649057        5.3754660298       23.0924891750
  H         6.2372885546        7.0217362541       24.5272696101
  H         5.6667369619        6.7926115058       25.9722889690
  C         4.7679941277        5.5468204408       24.6810584047
  S         6.5971885125        1.4971389638       25.8878303874
  C         6.0126815620        2.2845361907       27.3461154517
  H         5.9973734045        4.4257181548       28.0211314821
  C         8.1194437511        2.6126545771       22.9234793153
  H         8.3645777704        6.5089046225       23.1749453590
  C         8.7592629933        4.6733252404       21.9786205944
  H         4.9427280926        5.1576956268       23.6952175869
  H         4.5159744448        4.7379375221       25.3291408773
  C         3.4389013737        6.3060368460       24.4903347016
  C         5.7207172989        1.4155003290       28.5750557546
  C         8.6835948345        3.3048606778       21.8478379610
  H         8.1632548590        1.4392482645       22.9167984969
  C         9.0501151336        5.0885677796       20.7402469451
  H         2.7108301743        5.8169593931       23.8528348756
  H         3.6979298389        7.2958618796       23.9936845691
  C         2.7901963673        6.5918980523       25.8293627152
  C         5.7125911419        0.0349774050       28.8072203398
  C         5.0998274488        2.2703915973       29.7026233635
  C         9.0970092014        2.6637078998       20.5539784774
  C         9.2970581032        4.0938167974       19.8858256543
  S         9.0717594782        6.6637525037       19.9456159720
  H         2.1045901591        7.5203570571       25.6899987201
  H         3.6130939343        6.7995232297       26.5588589068
  C         2.0339826769        5.3972816513       26.3188414514
  N         6.1680904853       -0.8488773479       27.8988716171
  C         5.3246472905       -0.4821102247       29.9932419202
  C         4.8388445535        1.6609075156       30.8754791378
  H         4.9435203642        3.2941533685       29.5443478955
  C         8.0986345998        1.8385273146       19.7563101054
  C        10.4043989975        1.8582602728       20.7677064437
  C         9.7008620121        4.4720300470       18.6260310909
  C         9.6450181761        5.9035001930       18.4871817834
  H         1.5170971874        5.0234807731       25.5065508090
  H         2.8350041299        4.6775880684       26.6772648342
  C         1.1311098186        5.6924034215       27.3742662889
  S         6.1537408835       -2.3496226503       28.4633523988
  N         5.4905706189       -1.8852224349       29.9162362721
  C         5.0037885853        0.2395547747       31.1328221417
  H         4.5742381114        2.3432343530       31.5984122489
  H         7.7850680937        0.9840806726       20.4385759583
  H         8.4830101917        1.4204432853       18.7786600620
  C         6.7568149973        2.6693610652       19.3918327756
  H        10.9385701502        1.5352181146       19.9200575668
  H        10.2120569616        0.9216095989       21.3499799285
  C        11.3745771046        2.6147237838       21.6798681868
  H        10.0000933255        3.8774218937       17.8035780653
  C         9.8530123745        6.6520122031       17.2307674746
  H         0.2691510154        4.9647799660       27.4121102852
  H         0.5340781739        6.6536741324       27.1315700623
  C         1.7883136170        5.8397639594       28.7980222346
  C         4.8515990514       -0.4562779967       32.3204030681
  H         6.9719837044        3.4379994631       18.7240662621
  H         6.2559926226        3.1247765878       20.2469723017
  C         5.7079609348        1.6445908539       18.8547090690
  H        10.7947928320        2.6283172642       22.6622501734
  H        11.6450814627        3.5521722013       21.1744744050
  C        12.7397997973        1.9962319854       21.6673780122
  C         9.9724769303        8.0916832878       17.0597872923
  C        10.0640610993        5.8863595136       16.0233752229
  H         2.4959638018        5.1063933212       29.0323991834
  H         2.3709596604        6.6991659548       28.9123837565
  C         0.9238091957        5.6882775450       30.0008461596
  H         5.0745303615       -1.5375384305       32.2221615852
  C         4.6154592275       -0.0478821540       33.6130886795
  H         5.6417410570        0.9363226422       19.6520440246
  H         6.1726575824        1.2250233707       18.0845598840
  C         4.5277143371        2.2827153541       18.0664137013
  H        12.7249283405        0.9248762923       21.9193188024
  H        13.1561596175        1.9472648826       20.6613774296
  C        13.6939714811        2.8230982719       22.5633267852
  N         9.9265769492        8.9974918074       18.1413863728
  C        10.3585597577        8.6252531120       15.8748270657
  C        10.4079482407        6.4598584028       14.8121738781
  H         9.8322227456        4.8026658722       15.9818844642
  H         1.7074835096        5.9645866626       30.8971287409
  H         0.2483706912        6.5595784022       29.7502169425
  H         0.3676502787        4.8358642476       29.9513220729
  S         4.4396531990        1.5624666387       34.1207819774
  C         4.6654743483       -1.0022840232       34.7094999820
  H         4.4033024285        3.2869593559       18.6127598706
  H         4.8236632436        2.3882372074       16.9276691045
  C         3.1704664087        1.3628392642       18.2238857387
  H        13.3202489222        2.8455051530       23.5974374347
  H        13.8362631957        3.9720339310       22.2339277261
  C        15.0587800131        2.1611513232       22.5893935491
  S        10.1594276521       10.4886031361       17.5358211506
  N        10.4161533224       10.0571839829       15.9947108972
  C        10.5236789841        7.9351081225       14.6671573568
  H        10.4097967495        5.7983372218       13.9007977349
  C         4.1896532159        0.9135416544       35.7142303102
  N         4.2234914639       -0.4152729347       35.8177403414
  O         4.9351585820       -2.2077598689       34.7083314193
  H         2.2381389029        2.0039466935       17.9590021455
  H         3.0234453327        0.9524522174       19.2741366554
  C         3.1278017956        0.0657110557       17.3260062256
  H        14.9095093446        1.0886444764       22.6517507150
  H        15.4514216935        2.4248032659       21.6610593246
  C        15.8032722954        2.7628646984       23.7418930053
  C        10.9419638367        8.5620769694       13.4573670625
  S         3.8393578790        1.9322710437       37.1378825574
  C         4.1050766774       -1.0880626085       37.1991250811
  H         2.8162076247        0.0893847309       16.3191988987
  H         4.0646840516       -0.3143777957       17.1720822851
  C         2.2421697114       -0.9865983178       17.9520110553
  H        15.2318576668        2.8359258959       24.6224454203
  H        15.9576569165        3.8184711996       23.6028962699
  C        17.2158667061        2.2316556391       23.9992693292
  H        11.3442924746        9.6507232645       13.6126289470
  C        11.5207050866        8.0775893331       12.2312857476
  H         3.4501200405       -0.4461407388       37.8078570540
  H         3.5231223981       -1.9825373719       36.9126716918
  C         5.5076432320       -1.3797391135       37.6894358611
  H         1.3086285816       -0.6441081312       18.4512307827
  H         2.7286691471       -1.4635525248       18.8464845911
  C         2.0298116345       -2.3706827509       17.1849876633
  H        17.6159884857        2.8884664029       24.6697808981
  H        17.1678106427        1.3790054979       24.4754543447
  C        18.0129771914        2.0859110465       22.7231960964
  S        11.8081988703        6.4047343489       11.8283484495
  C        11.8519095712        9.0247256174       11.1965141447
  H         6.3438283734       -1.1123179766       36.9967855014
  H         5.7619965756       -0.9054063435       38.6763341869
  H         5.5905193732       -2.5430848744       37.8273407994
  H         1.6404138140       -3.1950334898       17.8622249801
  H         3.0302744846       -2.6661781713       16.8611962878
  H         1.3756701219       -2.3186791050       16.3287805574
  H        17.9005862593        1.2507841281       22.2000466531
  H        19.1278908415        2.0470032171       22.9726095024
  H        18.0005767160        3.0548575751       22.1215344839
  C        12.2343083355        7.0330559874       10.2028941964
  N        12.3476893582        8.3756007264       10.1784278775
  O        11.7774338935       10.2417149624       11.3760441483
  S        12.7937038774        6.0240306042        8.8481776719
  C        12.6894025596        9.1315301763        8.9238311451
  H        13.2179913636       10.0825183061        9.1472382955
  H        13.4660402916        8.6043210186        8.5714698965
  C        11.5655392168        9.2389089224        8.1165727282
  H        10.6567115576        9.4984501534        8.6666356380
  H        11.6427803855       10.1196184848        7.4477504155
  H        11.3551271582        8.4849549565        7.2868234164
  H        21.2184886990       11.2242026817        3.4303292819
  C        21.8055507888       10.4023051870        3.3979080408
  H        21.1178678739        9.5692555523        3.3959356449
  C        22.7719082096       10.4231251782        4.6783760809
  C        22.7373302973       10.2505957616        2.1895497464
  C        21.9827526473       10.6851322926        6.0107383486
  H        23.0818813220        9.5158734866        4.7393201050
  H        23.5399375683       11.0764517624        4.5351400115
  H        23.7385750707       10.6333122626        2.2794798933
  H        22.2838166165       10.7577488774        1.3167619701
  H        22.8039283496        9.1521838671        2.0351567057
  C        21.1353777187        9.5403168777        6.5740063339
  H        22.8145308095       10.9247566127        6.6897570760
  H        21.2821366741       11.5754793843        5.9414691416
  C        20.4892314197        9.8169267673        7.9687657873
  H        21.6963458232        8.7057487549        6.8042048587
  H        20.4969906591        9.1995185305        5.8790530997
  C        19.2477227247       10.5942404348        7.9245730815
  H        21.2899033538       10.1499955339        8.5828740690
  H        20.3164957933        8.9254845052        8.4701980655
  C        17.9952110921        9.7071755487        7.4345781454
  H        19.0823348177       10.9057333981        8.9491134188
  H        19.3831850051       11.6171010039        7.5234155882
  C        16.7671038440       10.6037277763        7.1928430277
  H        17.6974002114        8.8319599864        8.0961356647
  H        18.2147380851        9.1567233401        6.3716087179
  C        17.3004720520       11.9306440161        6.4889416281
  C        16.4168803723       11.3177777990        8.4322915456
  C        15.5948112628        9.7521019139        6.5776000451
  C        16.9381236533       13.0488819141        7.2658010756
  C        17.8096886157       12.2804597419        5.2600560472
  C        16.4986745109       12.7067041091        8.5621427142
  C        15.9933993345       10.5539722584        9.5937085716
  H        15.9074874931        9.2450454339        5.7603343299
  H        15.2589692861        8.8334386570        7.2617888899
  C        14.4352523839       10.5938115044        6.0507644959
  S        17.3990462527       14.5039477142        6.4971517094
  C        18.0576617590       13.6257043093        5.1692602046
  H        17.9451919354       11.5464276549        4.5073025043
  C        16.1466655300       13.3244541579        9.7066782397
  H        16.1657511155        9.4125595718        9.4791287366
  C        15.6028015012       11.2530858805       10.7396045503
  H        14.9084287020       11.5228484415        5.6448502470
  H        13.9621896240       10.9495490648        6.9522597125
  C        13.5691812943        9.8607902272        5.1297101191
  C        18.4572794163       14.3291383220        3.9410385692
  C        15.6746939489       12.6424932356       10.8266345910
  H        16.2960012175       14.4709407890        9.7177546083
  C        15.1063237053       10.9560168708       11.9491676332
  H        12.5537112650       10.2892326889        5.0658792203
  H        13.4212366594        8.7830030192        5.3800654422
  C        14.2522008974        9.8847779782        3.7026729433
  C        18.3223103291       15.7492785528        3.6924516792
  C        18.7353497959       13.4848615438        2.7503866477
  C        15.3036478384       13.3657422915       12.0359857511
  C        15.0342267840       12.0332752204       12.7748230423
  S        14.8744005552        9.4410685366       12.8152627753
  H        15.0012713458        9.1469152407        3.4885224485
  H        14.8993786222       10.8058766694        3.5246680563
  C        13.2066052998        9.8040576491        2.6949582647
  N        18.2799669429       16.7022284908        4.7667430527
  C        18.5852233856       16.2657965180        2.5107714858
  C        18.9343711225       14.0577938568        1.4958095584
  H        18.8584962836       12.4060280220        2.7886693459
  C        14.0545415777       14.2504915823       11.9128581067
  C        16.6429937591       14.0253389371       12.5996696900
  C        14.6156729763       11.6900804796       14.0701536844
  C        14.5237090999       10.3555255703       14.2868404679
  H        12.8743509158        8.8571084480        2.7212893589
  H        12.3990857194       10.4426660126        2.9275450267
  C        13.6626225790       10.0100200005        1.2880873872
  S        18.1404118504       18.1437756602        4.1360978638
  N        18.2205828695       17.6361202716        2.5343847429
  C        18.8673837702       15.4994480163        1.3095941633
  H        19.1957584434       13.3887732211        0.6959378180
  H        14.5023097920       15.0611395530       11.3874028638
  H        13.8487635874       14.6801490842       12.9148853716
  C        12.9001086240       13.5736102172       11.1072569340
  H        16.9624456333       14.8132940572       11.9528667702
  H        16.4586405510       14.4682013069       13.5725609550
  C        17.8111910785       13.1295688546       12.9121491086
  H        14.4676466909       12.5955346112       14.7755643304
  C        14.0803410158        9.6058758243       15.5048741400
  H        14.5615428882        9.4199089689        1.1316778047
  H        14.1002824365       11.0115448914        1.2206659022
  C        12.5428422391        9.8253111652        0.3022836654
  C        19.0619933728       16.2730812151        0.0902670416
  H        13.1743599576       13.4703237247       10.0231051176
  H        12.7157303374       12.5669037494       11.5086235724
  C        11.6482360327       14.3590520086       11.0846703260
  H        18.1261771386       12.5047894226       12.0767148364
  H        17.6243498489       12.4013717968       13.6449616675
  C        18.7556783401       14.0900811634       13.5654972190
  C        14.0382158475        8.2115844122       15.6908466237
  C        14.0066035919       10.4324767728       16.7160905569
  H        12.1924078522        8.8661273039        0.2179846028
  H        11.6745013758       10.5352921605        0.4817526516
  C        12.9688053339       10.1681396119       -1.1620043004
  H        18.9497434585       17.3945198167        0.2574941375
  C        19.2539074476       15.8712478095       -1.2524725278
  H        11.7539052288       15.2382756508       10.6030065567
  H        11.6651781655       14.6616432163       12.1255399647
  C        10.4598119275       13.5252925824       10.8761962926
  H        18.8402172409       15.0307379104       13.0866132746
  H        18.5431871867       14.0737112419       14.6520822442
  C        20.1251292159       13.4396087096       13.7205410995
  N        13.9725753783        7.3040196700       14.5973778583
  C        13.5102498890        7.6836955660       16.8181389791
  C        13.6027673230        9.9277977490       17.9484452647
  H        14.4100473204       11.4162787717       16.6549848019
  H        12.6418653815        9.4968060308       -2.0343404960
  H        14.0387172369        9.9972959347       -1.1915143707
  H        12.7643372247       11.2002448056       -1.4734772204
  S        19.3959784254       14.2994043776       -1.7726866730
  C        19.2201086375       16.9226192336       -2.3266646618
  H        10.7413210705       12.6330364245       10.3598461313
  H        10.0630490424       13.1963257664       11.8541442643
  C         9.4381141842       14.2737300385       10.0732443252
  H        20.2666215149       12.9116502611       12.8311945942
  H        20.0219876641       12.8107672618       14.6440099597
  C        21.4102088229       14.1828431218       13.8907858522
  S        13.6803821436        5.8710493012       15.1916019660
  N        13.3577844501        6.3103557788       16.6740463413
  C        13.3603864956        8.4455088154       17.9907643056
  H        13.6317669099       10.4842106190       18.8305282063
  C        19.7721311233       14.9734914976       -3.3085154771
  N        19.5548566811       16.3135297245       -3.4558707206
  O        19.0455380899       18.1577678425       -2.1852895499
  H         8.8162445323       14.9549963762       10.5677257151
  H         9.8841134377       14.9425299498        9.3097523198
  C         8.4680582131       13.3056830614        9.2144393871
  H        22.2801734911       13.6092813060       14.1093474751
  H        21.6407608665       14.5386355249       12.9486628610
  C        21.3189480285       15.5797418179       14.6341127960
  C        12.9679765883        7.7794404934       19.2510243470
  S        19.9765006827       14.0144384566       -4.7810601893
  C        19.4480527227       16.9055449210       -4.7897180612
  H         8.8257204506       13.4716792147        8.1589095076
  H         8.6182129603       12.3680690252        9.7197123614
  C         7.0691642503       13.7995825518        9.2715232511
  H        21.8212929350       15.4039052643       15.5785346209
  H        20.2941075080       15.8790443250       14.6986512708
  C        22.2222061562       16.7686370835       14.0125186403
  H        13.0298069478        6.6569114863       19.3352743251
  C        12.3774995823        8.1086067039       20.4406382740
  H        20.1831782127       16.6122739015       -5.5206676521
  H        19.7820142966       17.8784801190       -4.6561279695
  C        17.9871570432       17.1339555107       -5.2614380307
  H         6.5423456280       13.2331828185        8.4375279404
  H         6.9319734595       14.8041316328        9.0793392040
  C         6.4332190171       13.3341264895       10.6094014372
  H        23.1446528666       16.3396964625       13.7249993480
  H        21.6645884271       17.1547786252       13.1907419937
  C        22.3407206026       17.7944048675       15.0757050746
  S        12.0660186196        9.7151930572       20.9434124377
  C        12.2368301818        7.0766272358       21.4769100825
  H        17.9258031231       17.5594802958       -6.1964280316
  H        17.2139064870       17.3370100290       -4.5380011041
  H        17.5199479877       16.1727753602       -5.5944638846
  H         5.4758581918       13.8204835029       10.6765833307
  H         6.2321399491       12.2900540025       10.7092445064
  H         7.1063594166       13.6573247620       11.5777242635
  H        23.1947565355       18.3207228581       15.0131039236
  H        21.6565959456       18.5494244325       14.8584975611
  H        22.1691220919       17.4890541819       16.0349812931
  C        11.4534456235        9.0179150217       22.3907841651
  N        11.6271065488        7.6835467497       22.5232771208
  O        12.4641028663        5.8756863247       21.3354231129
  S        10.8048107567        9.9789274953       23.7604385152
  C        11.4099911313        7.0538435067       23.8503151444
  H        11.5010450316        5.9754958871       23.8085535303
  H        10.4258602465        7.3793415378       24.3620233322
  C        12.5214445075        7.5424333112       24.6914415703
  H        12.3573874268        8.3266008312       25.4051596614
  H        13.3645348369        8.0206001786       24.0720124236
  H        12.8462084057        6.7318440148       25.3507741921
