352
 i =    54700, time =    54700.000, E =        24.8669730810
  H        11.9899686478        4.7032362247       32.2496994459
  C        11.2011887436        5.4176842336       32.4186872622
  H        10.3007960541        4.8428697196       32.2862632496
  C        11.1245947186        6.5131053933       31.3661311174
  C        11.1632017294        5.9922109828       33.8560204923
  C        11.5258698850        6.1101824364       29.9622586921
  H        10.1512310089        7.0643616141       31.3337959328
  H        11.8659201057        7.3659556823       31.5909276885
  H        11.9195673010        5.4771123776       34.4435345579
  H        11.5427477512        7.0491718279       33.7591089177
  H        10.1360816118        5.9218925971       34.1481200056
  C        10.3005136936        5.9951355556       29.0225761694
  H        11.8367023216        5.0789977964       30.0433121062
  H        12.3653381509        6.6254119212       29.5281071454
  C        10.7812412053        5.6769981419       27.6128091552
  H         9.5268192149        5.2635799225       29.3809158680
  H         9.6568579346        6.8579347493       28.9882201475
  C         9.6825340472        5.0567619350       26.7532913963
  H        11.5559503821        4.8848418615       27.8407780857
  H        11.1107230285        6.6180136974       27.1365749012
  C         8.5250575448        6.0077456243       26.3857607007
  H        10.1820349028        4.6413600466       25.8322676797
  H         9.3185991783        4.2240277256       27.3602029738
  C         7.4571288565        5.2889766897       25.6358083632
  H         7.9900634604        6.3358046764       27.2397422603
  H         8.9187341311        6.8373821418       25.7842186415
  C         7.0665466688        4.0382199162       26.3489912143
  C         7.8886420426        4.5536582886       24.3662838232
  C         6.1890848517        6.1375708895       25.4349869107
  C         7.1780819986        2.9341907921       25.5597928434
  C         6.5653138268        3.7474392547       27.6218258281
  C         7.7716394102        3.2215222093       24.3117073291
  C         8.3707584070        5.2215053103       23.1899955269
  H         6.4706559361        6.8313054931       24.6728575674
  H         5.9556641542        6.8487976023       26.2569589280
  C         5.0150754171        5.4003341588       24.7934175395
  S         6.8072010507        1.4717489598       26.2864661779
  C         6.3889491906        2.3725671455       27.6964186581
  H         6.3537345718        4.5802685680       28.3111473142
  C         8.2129260649        2.5643533269       23.1998758561
  H         8.3624513396        6.3240582167       23.2446518474
  C         8.7868916604        4.5507187078       22.1287496044
  H         5.2701603854        5.0028932333       23.8147898664
  H         4.7151617993        4.5411465464       25.3418794811
  C         3.7366946422        6.2437731379       24.8135510275
  C         5.9287164720        1.6118457018       28.9075195420
  C         8.6517366014        3.1981128753       22.0416883221
  H         8.1750739177        1.4554869185       23.1735727346
  C         9.0861761285        4.9609599839       20.8552705751
  H         3.0573412032        5.9049658842       23.9810771924
  H         3.9559078072        7.2778623244       24.4715721687
  C         3.0465022107        6.3394104055       26.1517603552
  C         5.9843521384        0.2521641156       29.0859360686
  C         5.5300387995        2.3928229821       30.0510945422
  C         8.8973959609        2.5220208320       20.7439894450
  C         9.2888162330        3.8589125833       20.0354472609
  S         9.2682125499        6.4050287385       20.0641031553
  H         2.2780994991        7.1119417691       26.0732038033
  H         3.7757764765        6.7727909327       26.8606590577
  C         2.4530159141        5.0660124712       26.7849215508
  N         6.3020051238       -0.7011878259       28.1372088625
  C         5.7220211578       -0.3795664967       30.2967582033
  C         5.2432552599        1.8264749209       31.2797008446
  H         5.3631725888        3.4491630271       29.9835091700
  C         7.6961969036        1.7500629558       20.0913185311
  C        10.0539393749        1.5593834804       20.9558887118
  C         9.7190835584        4.1769963612       18.7407702176
  C         9.7558287239        5.5291125760       18.6056424211
  H         1.8883281078        4.4839661610       26.0646517416
  H         3.2664116750        4.3368635536       27.0051353753
  C         1.5751677632        5.2641515689       28.0069622916
  S         6.2005217236       -2.2279892296       28.7333116557
  N         5.7361175035       -1.8297522027       30.2416236085
  C         5.4146084487        0.3426575711       31.5047736321
  H         4.8912105144        2.4896996550       32.0741452860
  H         7.3074061910        0.9185589951       20.7161379446
  H         8.0008635492        1.3732186969       19.1105620908
  C         6.5070166557        2.5410142402       19.6485972462
  H        10.2010373334        0.9986904253       20.1051035265
  H         9.8410745562        0.7322710018       21.7087333092
  C        11.3685763194        2.0353912866       21.3625451444
  H         9.8122597877        3.4018535265       17.9929213740
  C        10.1849258275        6.2655529658       17.3275405734
  H         0.9390695669        4.3715716683       28.1482543696
  H         0.9389943037        6.1730151249       27.9733315612
  C         2.3999656184        5.6589710270       29.2148758197
  C         5.1500412457       -0.3785182024       32.7280001255
  H         6.8169800444        3.0152141417       18.7477089439
  H         6.2436201888        3.2373572521       20.4310853774
  C         5.3105251846        1.6431568199       19.2610890652
  H        11.2863623984        2.2120581163       22.4029094865
  H        11.6249770426        3.0242097756       20.9933540389
  C        12.5189869917        1.0605404919       21.0086993104
  C        10.3815165504        7.6786183491       17.1813986139
  C        10.1320091513        5.5492450560       15.9811723070
  H         2.8245334039        4.6938324265       29.6503338617
  H         3.1982355516        6.4095027024       29.0758299480
  C         1.4437529377        5.9541304780       30.3996760858
  H         5.2157220050       -1.4048659932       32.6824645886
  C         4.7905880240        0.0677017138       33.9791027588
  H         4.7016987427        1.5204607339       20.0619929394
  H         5.5696383415        0.6628396874       18.8262539822
  C         4.5560458303        2.3392708194       18.1909833000
  H        12.5539228822        0.2076918204       21.6158695920
  H        12.5200641383        0.5932235090       20.0042331232
  C        13.9326447104        1.5390681975       21.1888711426
  N        10.0749010300        8.6245073130       18.2215285938
  C        10.5527191954        8.3001432318       15.9445593906
  C        10.6485112086        6.1158642935       14.8126639551
  H         9.9332762181        4.5171343726       16.0752615008
  H         1.6500867804        5.4205245898       31.3217945330
  H         1.3796635224        7.0261308402       30.6309217664
  H         0.4586301637        5.6318726063       30.0383699272
  S         4.4295413236        1.6825935009       34.4669191328
  C         4.8331178103       -0.9542136056       35.0705342736
  H         4.4899034695        3.4363190128       18.1464977211
  H         5.0423267571        2.0381940326       17.2725686665
  C         3.1038757164        1.8909804683       18.0909420755
  H        14.2966850454        2.2433112684       20.4060132445
  H        14.4582027348        0.6432359692       21.0729319637
  C        14.1883180292        2.1298787382       22.6127552979
  S        10.2135850843       10.1292143844       17.6085405610
  N        10.5987179561        9.6998730375       16.0666067685
  C        10.7639985483        7.6525583777       14.7180420756
  H        10.7864687182        5.5728238444       13.9125728670
  C         4.2205955810        0.9615855319       36.0879323922
  N         4.3139006230       -0.3567359982       36.1703109163
  O         5.0025152335       -2.1528411406       34.8677629497
  H         2.5843943909        2.6621968566       17.6170826162
  H         2.6020696229        1.7657918960       19.0740880942
  C         2.9998823534        0.5433761596       17.4464189538
  H        14.0801675187        3.2304941302       22.5048207028
  H        13.4869066318        1.6767384764       23.3032134832
  C        15.6295080203        1.9321375354       23.1701805455
  C        11.2756323599        8.4277440320       13.6027179608
  S         3.7491634394        1.8993648460       37.5558693733
  C         4.2242892720       -1.0901319814       37.4004643286
  H         2.4976300892        0.7035550107       16.5049770860
  H         3.8553602661        0.1062391895       16.9638464283
  C         2.0782331383       -0.3242589783       18.2370858596
  H        15.6230772026        1.0044388215       23.7322327421
  H        15.7462786929        2.7473021172       23.8117389942
  C        16.7044909473        1.8635006823       22.0584833700
  H        11.2093052898        9.4911706998       13.7898995624
  C        11.6502515395        8.0731976717       12.3373034351
  H         3.4185058872       -0.7331707404       38.0041620012
  H         3.7177711739       -2.1056011398       37.1871763972
  C         5.5906916581       -1.0982905852       38.1881887796
  H         1.0872194034        0.1660389972       18.2664506708
  H         2.3348974212       -0.3018676852       19.2976273377
  C         2.0464058826       -1.6451511842       17.5921428610
  H        16.9111924435        0.7935504670       21.8073124468
  H        16.5684320119        2.4483353479       21.1086894078
  C        18.1030873186        2.2386669840       22.5328585494
  S        12.0837329582        6.5211790728       11.8687880176
  C        11.7362762982        9.1536328882       11.2815738077
  H         5.6906836292       -2.0911863002       38.7802245231
  H         6.4955063651       -0.9296845943       37.5216659343
  H         5.6321245302       -0.3894591171       38.9488308132
  H         3.0715802562       -1.9660101322       17.4137273537
  H         1.5203435846       -1.6299071538       16.6443078693
  H         1.6612889955       -2.5129024050       18.1670538081
  H        18.0282934040        2.3181083423       23.6107984452
  H        18.4387594006        3.2768672301       22.1321343260
  H        18.8691978968        1.5526801593       22.2123732048
  C        12.3759595165        7.2234043188       10.2451500275
  N        12.2619103065        8.6099297502       10.1869942950
  O        11.4057863198       10.3604003757       11.4358799385
  S        12.9788205224        6.3707242168        8.8097666629
  C        12.4064693416        9.3305578904        8.9105891229
  H        12.5012769124       10.4530699034        9.1502364555
  H        13.2368485386        9.0002107442        8.3495918811
  C        11.0672963758        9.1656200432        8.1286422255
  H        10.2827061435        9.1073936700        8.8327360517
  H        10.8443507430       10.0036861386        7.4268792591
  H        11.0030061627        8.1822330557        7.5710758240
  H        22.7665946660       10.3133669231        3.0112328289
  C        22.2706172939       10.5474070773        3.9368043790
  H        22.6658061439       11.4581011292        4.2576026462
  C        22.5076384275        9.4557788771        5.0121868058
  C        20.8297556465       10.5519969277        3.6126049197
  C        22.1060341108       10.0334739773        6.3452409357
  H        22.0435585006        8.5441194095        4.5596823206
  H        23.5874463384        9.2609508923        5.0215203973
  H        20.2656382372       10.7466540942        4.4695211336
  H        20.5667009200        9.6071481052        3.2584376782
  H        20.6584611389       11.4247986527        2.9338124133
  C        21.1871482221        9.0472135061        6.9473120482
  H        23.0122559310       10.1634283212        6.9087257818
  H        21.6729072438       11.0778526241        6.2269884958
  C        20.5215709294        9.4181120920        8.2738601362
  H        21.6832063365        8.0915318568        7.1036200643
  H        20.4534492706        8.8461553307        6.1669563118
  C        19.3025208912       10.2649718526        8.0045533832
  H        21.1785657808        9.9556337210        8.8925950274
  H        20.3261739534        8.5412851526        8.8033865968
  C        18.0816269634        9.4276666379        7.4497942344
  H        19.0004930877       10.6919401395        8.9749184219
  H        19.5533822243       11.0801560784        7.2959416445
  C        16.8933014692       10.3180069076        7.1449428884
  H        17.8864764468        8.7484613563        8.2540060159
  H        18.3618460857        8.9537987965        6.5102141972
  C        17.1340364051       11.7402039206        6.4458742394
  C        16.3836081343       11.0912677581        8.3381733985
  C        15.7356062573        9.5848552499        6.3712581572
  C        16.8979159663       12.8264201725        7.2533105087
  C        17.5785352101       12.0998635335        5.1295210913
  C        16.3881653214       12.4169570911        8.4546130355
  C        15.9506228570       10.4421670940        9.5027422889
  H        16.2850577328        9.1824283118        5.4954906285
  H        15.2895633806        8.8217885333        7.0111816134
  C        14.6261803734       10.4493808208        5.9099412744
  S        17.2986865121       14.3146982460        6.4962063937
  C        17.7524616783       13.4797946856        5.0400884949
  H        17.6768332286       11.2862382765        4.3581960230
  C        15.9340315951       13.0525661241        9.6063323178
  H        16.0396651961        9.3557220354        9.5089891421
  C        15.4333299826       11.0736861574       10.6508846240
  H        15.0939469954       10.9834135683        5.0474282203
  H        14.3009953382       11.2384672792        6.5867771038
  C        13.4590882505        9.7151344601        5.2951439300
  C        18.2063805419       14.2609594199        3.8395093622
  C        15.4312941486       12.4329848375       10.7351840700
  H        15.9781347847       14.1305680589        9.5817211229
  C        15.0172066305       10.7058403498       11.8942368821
  H        12.5805784841       10.2978386821        5.6022280180
  H        13.3258120263        8.6938686034        5.6508881738
  C        13.4926211462        9.8029339233        3.7561862993
  C        18.1008551754       15.6542022884        3.6769666463
  C        18.5671673864       13.4619576925        2.6586203703
  C        15.1019251906       13.1120040498       12.0417595679
  C        14.7704689637       11.7913683714       12.6737877042
  S        14.7276850659        9.1995575080       12.6655864523
  H        14.3360609675        9.1606334584        3.5479623506
  H        13.8145455245       10.8454429686        3.5685292955
  C        12.2274754431        9.4304072736        2.9369775124
  N        17.6432381385       16.5900610300        4.6365137549
  C        18.3882655279       16.2413669160        2.4836523738
  C        18.7033722495       14.1196406212        1.4685437359
  H        18.5804385758       12.3679315743        2.7884231496
  C        13.8959238354       14.0871272804       11.9134876352
  C        16.3445604894       13.8630108129       12.5869688214
  C        14.3404825701       11.3747418789       13.9342344233
  C        14.3260855901       10.0035901514       14.1096962765
  H        11.5260907014        8.7605786166        3.4895792253
  H        11.7594723592       10.3415016301        2.7800446389
  C        12.5495003600        8.7497332579        1.6173252585
  S        17.7733541112       18.0714746127        3.9432229909
  N        18.4285698465       17.6265788607        2.5293449817
  C        18.7073855324       15.5573927776        1.3196488311
  H        18.8830611348       13.4666726679        0.6467430845
  H        14.1206974349       14.8178778425       11.1412304462
  H        13.6642071667       14.6790459199       12.7440657200
  C        12.6128713380       13.4408466233       11.6662394851
  H        16.6778188946       14.4998967464       11.8339993585
  H        16.0212874344       14.4633977310       13.4956462592
  C        17.4476766707       12.9731546632       13.0559073995
  H        14.1458585235       12.1724103273       14.6349999072
  C        14.0474329249        9.3534950573       15.3866197964
  H        11.8177361365        8.0582532331        1.1736202449
  H        13.3984522877        8.0353759913        1.8322783255
  C        13.0733250524        9.6891215719        0.5766646175
  C        18.9606678152       16.2594282576        0.0681715094
  H        12.6745422514       12.6572019747       10.8557629718
  H        12.3063811991       12.7947624103       12.5360082223
  C        11.4334453555       14.3620686233       11.2019870652
  H        17.9399427164       12.6362092684       12.1154681844
  H        17.1325000077       11.9933860011       13.5651345926
  C        18.5428462758       13.9037208751       13.6978675382
  C        14.0060949609        7.9541603368       15.5706520898
  C        13.8309972069       10.2449327911       16.5876007542
  H        13.4846858038       10.5989137495        1.1561768040
  H        13.9726465142        9.2569517185        0.1486117813
  C        12.0386293274       10.0068432105       -0.4518545760
  H        19.1304341957       17.3417232461        0.1534317218
  C        19.1375935969       15.7825764540       -1.2058926118
  H        11.6882427890       14.7401506658       10.1610872338
  H        11.2075282010       15.2369521024       11.8226364097
  C        10.0494628245       13.5709270043       11.0807868479
  H        19.0921458379       14.3776776642       12.8376342879
  H        18.1025681289       14.8230649239       14.2239820103
  C        19.5456221267       13.0840626500       14.6051522970
  N        14.0866463145        6.9799517343       14.5497408148
  C        13.6761808179        7.3520409087       16.7851531353
  C        13.6201937846        9.6418315010       17.8630902340
  H        13.9024297694       11.2984592596       16.5866494339
  H        11.8500490950        9.0329983922       -0.9397212815
  H        12.4051138835       10.8062689416       -1.1734294642
  H        11.0723279258       10.3540507081        0.0085550550
  S        19.4048391448       14.1724239394       -1.7594340052
  C        19.3610304405       16.8246770640       -2.2824648101
  H        10.3166027481       12.6149501426       10.6217881795
  H         9.7026397182       13.3859801393       12.1190145541
  C         8.9896302154       14.2643939906       10.1411459814
  H        19.6258817801       12.0669268718       14.2066784445
  H        19.1446851542       13.0068080301       15.5639838236
  C        20.8946672560       13.8248699612       14.7860597344
  S        14.0096825988        5.5163445341       15.2736163772
  N        13.6333348295        5.9489658476       16.7964176761
  C        13.5172503978        8.1641271045       17.9776082431
  H        13.6083012139       10.2180500140       18.7308175940
  C        19.5957217941       14.8883963850       -3.3538664109
  N        19.6358063732       16.2084705906       -3.4292891895
  O        19.4543055873       18.0899261154       -2.0767159488
  H         8.3604905883       15.0455867649       10.6573962738
  H         9.5084320940       14.8218031555        9.3097610742
  C         8.1079309847       13.3030381771        9.4126103649
  H        21.3665287808       13.3600586216       15.6554864591
  H        21.5506871371       13.5493001166       13.8737663600
  C        20.8153721250       15.2888399307       14.9827288287
  C        13.3323000413        7.4559290351       19.2025788908
  S        20.0444372391       14.0316887483       -4.8419509290
  C        19.6127769855       17.0500927384       -4.6247637904
  H         8.7540311262       12.7873469078        8.6479797849
  H         7.6871660309       12.6534881820       10.2041029678
  C         6.9371080370       13.9415629017        8.5978543482
  H        19.9031568611       15.5575095267       15.6058293193
  H        20.5780234248       15.7337615277       14.0508507309
  C        22.1421133919       15.8494785218       15.5516186009
  H        13.3433411523        6.4232271546       19.1202376860
  C        12.8765464013        7.7503506571       20.4695629869
  H        20.2689339707       16.6281042267       -5.3730115180
  H        20.0084701512       18.0401494884       -4.3608251211
  C        18.2208549491       17.2160617044       -5.2546649530
  H         6.5173948268       13.2016110060        7.9687315086
  H         7.3320333069       14.7627218565        8.0231942042
  C         5.7836602181       14.2618159089        9.5338734843
  H        22.4428881679       15.4111535348       16.5288001790
  H        22.9354596457       15.5871830705       14.9094639533
  C        21.9812624268       17.3136318593       15.7487577947
  S        12.5020609671        9.2328628524       21.1501186707
  C        12.6851238808        6.5203670073       21.3344412794
  H        18.2857304860       17.9761755998       -5.9364610756
  H        17.5824275204       17.5022003712       -4.4376944332
  H        17.9421598701       16.2173990589       -5.6405361827
  H         6.0029992859       15.1821303673       10.0504419013
  H         4.9553461775       14.4671968147        8.8965142407
  H         5.6685073263       13.4945314071       10.2752135308
  H        21.7778733484       17.7380854880       14.7768419482
  H        21.1725972377       17.6140404895       16.3854923951
  H        22.8304395580       17.7921037119       16.1424845034
  C        12.0632375285        8.3036053421       22.5697226605
  N        12.1193311487        6.9616788517       22.4795447709
  O        12.7913937183        5.3177249028       20.9998241096
  S        11.0403983628        8.9989224923       23.8165591362
  C        11.6733291801        6.0012891492       23.4152906086
  H        11.3591835290        5.0524174952       23.0389969965
  H        10.8785419040        6.2620920517       24.2318661539
  C        12.9241916976        5.5691856918       24.2187676704
  H        12.8420275719        4.5274295095       24.5267580053
  H        12.8408000548        6.1103410457       25.2109633817
  H        13.8752092420        5.8037904306       23.7640394902
