352
 i =    80100, time =    80100.000, E =        25.1486495561
  H         9.8840282560        6.8099810683       32.1855829637
  C        10.9195150056        6.6186352206       32.3548317929
  H        11.3643913800        7.5310801287       32.7281769723
  C        11.5464372172        6.2803982273       30.9779698300
  C        11.0438120500        5.5313281291       33.4326077321
  C        10.6061426688        5.6441072415       30.0138434949
  H        11.9633604285        7.2339877890       30.6272860172
  H        12.4273760451        5.6532829585       31.1278085119
  H        10.2988865348        5.5786667648       34.2485501357
  H        10.9398193041        4.5531051546       32.9758613552
  H        12.0462307343        5.5969461718       33.8571393075
  C        10.0240632607        6.6171778202       28.9188370221
  H         9.7319110556        5.1044914668       30.4381043114
  H        11.0063006606        4.8496844723       29.4358655709
  C        10.6559092950        6.3535725025       27.4838090852
  H         8.9605991242        6.4029961836       28.9063183353
  H        10.2482642565        7.6559631623       29.1347747324
  C         9.7124904556        5.5961257715       26.5673195704
  H        11.6291561074        5.9404288939       27.5541903933
  H        10.8762841937        7.2935837893       27.0043560594
  C         8.5155513704        6.4114491136       25.9679151278
  H        10.2532633319        5.3180075708       25.6975987547
  H         9.4142601771        4.6765313386       27.0924842172
  C         7.4791845108        5.5287352214       25.2628555740
  H         8.0003288357        7.1489614251       26.6410380523
  H         8.9082427511        6.9925618255       25.2393136010
  C         7.2164106183        4.1906784650       25.9157269348
  C         8.0252239483        4.8548921170       24.0246360905
  C         6.2143630341        6.3383012006       24.8865673863
  C         7.3554904310        3.1330357169       25.0401170661
  C         6.7212880847        3.7329665436       27.1620577444
  C         7.8348962838        3.5743532658       23.8263049303
  C         8.4168886453        5.4741605278       22.8401461006
  H         5.9076802804        6.0234542928       23.8782885137
  H         6.4057315521        7.4271983736       24.8929498573
  C         4.9314375780        6.1702650322       25.7103713813
  S         6.9817411903        1.5831533946       25.7697151157
  C         6.6295987695        2.3972521821       27.2276043544
  H         6.5513764465        4.4950571918       27.9100771170
  C         8.1795544824        2.9410529602       22.6708449611
  H         8.4431178106        6.5229655154       22.8623736887
  C         8.6506563111        4.8895616348       21.6303445757
  H         4.8196196525        5.1018840292       25.7848228965
  H         5.2278722328        6.5422499864       26.7074189136
  C         3.6662568987        6.7919495131       25.0273951226
  C         6.2077354837        1.6152436948       28.4195194811
  C         8.5961415875        3.5383054321       21.5056290291
  H         8.0540988322        1.8702630124       22.6236316912
  C         9.0483433426        5.2686060701       20.3067299287
  H         3.2667849132        6.2287376081       24.2782857161
  H         3.9904610796        7.7982010870       24.5311012270
  C         2.6449258490        7.1085121292       26.0873647019
  C         6.2724288089        0.1306834330       28.5857900500
  C         5.4850102890        2.3284501421       29.4741146407
  C         8.9082487424        2.8101102795       20.2683938182
  C         9.0770185034        4.1759258502       19.4610237915
  S         9.3815321234        6.7196945367       19.4164045324
  H         1.6855335581        7.3818050988       25.6548509792
  H         2.9309676652        7.9141468220       26.6417566510
  C         2.5137602097        5.9208724241       27.0601887565
  N         6.7650888050       -0.8152067071       27.6704384415
  C         5.8109358252       -0.4833222488       29.7833757534
  C         5.1597817244        1.6819899521       30.6659140876
  H         5.4896463628        3.3821603030       29.4675055601
  C         7.6047300964        1.9553118875       19.9432211380
  C        10.1737785856        2.0106728713       20.4423827544
  C         9.4720470537        4.4984404186       18.1382844692
  C         9.6343720927        5.8269275432       17.9956302812
  H         2.8271186919        4.9463462591       26.5805383006
  H         3.0869122232        6.1841569301       28.0051578816
  C         1.0239149256        5.8026454537       27.3465394275
  S         6.4680947928       -2.2854893470       28.2367010068
  N         5.8148430333       -1.9422986920       29.6917870583
  C         5.4353371974        0.2352066757       30.9071564780
  H         4.6893762843        2.2581425099       31.4138009275
  H         7.6411164762        1.0590258259       20.5974163799
  H         7.6179930934        1.5206724241       18.9415236782
  C         6.2475648252        2.6723751030       19.8379204551
  H        10.3364458460        1.6389606279       19.3591965223
  H         9.9576960116        1.0618766429       20.9575115761
  C        11.4428619626        2.6954710612       21.0224330718
  H         9.4553395391        3.7341550924       17.3961343776
  C        10.0081145684        6.5928130868       16.7404245310
  H         0.7569035594        4.9483125008       26.7008582218
  H         0.4169059282        6.6164262102       27.1185217417
  C         0.8612960640        5.3671842340       28.8407739968
  C         5.2448723367       -0.4847631305       32.1167917620
  H         6.3660595090        3.5247726503       19.1943688662
  H         6.0592682749        2.9948285858       20.8970009023
  C         5.0378708385        1.7702947755       19.3986928877
  H        11.1431349834        3.1128119304       22.0165839349
  H        11.7006658975        3.5318523980       20.3872905233
  C        12.5981865747        1.8334599805       21.2293256934
  C        10.1297555560        7.9762445744       16.5556412714
  C        10.4631742583        5.8189866945       15.5810773040
  H        -0.1183945965        4.8158633548       28.9044103746
  H         1.6338834001        4.6952538915       29.0268052150
  C         1.0416530374        6.5187428971       29.9268913257
  H         5.2968574702       -1.6155190512       31.9762697173
  C         4.9866479156       -0.0603824482       33.3758419807
  H         4.0819030371        2.2605618967       19.6564857864
  H         5.2411828856        0.8514033299       19.8995736645
  C         5.1684469217        1.5301478438       17.8511456832
  H        12.2761813158        1.0016195792       21.9242863633
  H        13.0608214428        1.3200951983       20.3818812985
  C        13.7292134985        2.6891249258       21.8667656954
  N        10.0036151042        8.9138948541       17.5250298012
  C        10.6000561686        8.5363428049       15.3741137898
  C        10.8965724950        6.3187739039       14.3888862549
  H        10.3927644489        4.7444364743       15.6988540271
  H         0.3769736182        7.3440866817       29.6479576972
  H         0.7154818763        6.2025234712       30.9081522364
  H         2.1245444420        6.7967387961       30.1189037822
  S         4.8223957816        1.5783943485       33.9640687350
  C         4.8421973192       -1.0650334053       34.4824099603
  H         5.4491974141        2.4148071497       17.3353299765
  H         5.9876376952        0.7700084464       17.6674286075
  C         3.8593787189        0.9071630716       17.3416991458
  H        13.3513398282        3.3113450143       22.7232439729
  H        14.2301976368        3.3470872662       21.1621624225
  C        14.9183453642        1.8305613846       22.3516530557
  S        10.3475444416       10.3979429641       16.9564843141
  N        10.7060996392        9.9391994500       15.4702648526
  C        10.9291618361        7.8222576542       14.2165676915
  H        11.1673625692        5.6723210472       13.5630762081
  C         4.5711987122        0.8883353092       35.5191742610
  N         4.6556798148       -0.4405658219       35.6638817903
  O         5.0343450479       -2.2181140309       34.2556387879
  H         3.7427105102        0.9969964629       16.2308993821
  H         3.0072676323        1.4765520189       17.5815433826
  C         3.7192343185       -0.5562425674       17.8021091105
  H        14.5445602974        1.0270766900       23.0348981723
  H        15.4544276823        1.3236544204       21.5384260739
  C        15.9750045186        2.6572797045       23.1473478226
  C        11.1620687982        8.5737781682       13.0469432515
  S         4.2623448615        1.8983001816       36.9493301155
  C         4.6551605380       -1.1841662812       36.9711377258
  H         4.5632263335       -1.2041187220       17.3800202613
  H         4.0630160874       -0.5839695550       18.8844536598
  C         2.4101902528       -1.2872563181       17.7109056793
  H        15.6205526010        2.9153948454       24.1473023920
  H        16.2736627861        3.6162100606       22.6807018728
  C        17.3267703063        1.9758498954       23.3428153019
  H        10.7509566511        9.5721204023       13.0709815669
  C        11.8528197802        8.2366159284       11.8747229464
  H         4.0526909651       -0.7973379538       37.7813396029
  H         4.2339576914       -2.2021927696       36.6951760562
  C         6.1530569393       -1.2996322824       37.4381906199
  H         1.5254547810       -0.8153897003       18.1368708126
  H         2.6021298042       -2.1947148152       18.2257135778
  C         2.1568210469       -1.4131534608       16.2254062860
  H        17.7280137298        2.4321542566       24.2557626609
  H        17.2158774334        0.9192156523       23.6149873185
  C        18.2710930750        2.0145435366       22.2135590373
  S        12.3935844695        6.6899307687       11.4611664081
  C        11.8994430597        9.1791722667       10.7197906165
  H         6.7803070832       -1.4828056070       36.5695021197
  H         6.4348636423       -0.3624899299       37.8485736432
  H         6.2590010720       -2.0770371465       38.2313294995
  H         2.4214221189       -0.6102534741       15.5474808006
  H         1.0911253018       -1.6828638853       16.0450315270
  H         2.8094791384       -2.1955121493       16.0102084465
  H        18.5107971498        3.0167470749       21.8382663525
  H        17.9970375940        1.4459784385       21.3523643692
  H        19.1415385061        1.6176423937       22.5825804648
  C        12.8935831017        7.3320853572        9.9383279206
  N        12.5117728471        8.6378741076        9.6841356116
  O        11.3973988024       10.2685314080       10.7896782083
  S        13.7362240094        6.4169947929        8.6929914584
  C        12.6410691977        9.2671906098        8.4461011222
  H        12.7793998004       10.3278221155        8.5976023503
  H        13.5965249482        9.0309895388        7.9071463868
  C        11.3660276841        9.0366261049        7.6824941121
  H        10.4867781892        9.1718425662        8.2627618983
  H        11.3017675917        9.7419286982        6.8769301170
  H        11.2747351520        8.0013956104        7.3539168220
  H        21.2969997212       10.7255714828        2.6745221161
  C        21.5384903583        9.6816649394        2.6133929799
  H        20.6975261669        9.0622062436        2.9318875163
  C        22.6986724670        9.5520667311        3.6034639106
  C        22.0476871967        9.6168401182        1.1770477941
  C        22.2622523257        9.7189456548        5.0810686453
  H        23.1214181139        8.5451907385        3.4023392769
  H        23.5529422743       10.2497867642        3.3985395019
  H        22.3252092069       10.5785749416        0.7288641414
  H        21.1284436067        9.1843741554        0.6108592774
  H        22.8681739767        8.7999794216        1.1199182687
  C        21.5442288514        8.5141014922        5.7522697252
  H        23.0928449056       10.0381724748        5.7902170596
  H        21.6106083317       10.6414436302        5.2282329805
  C        20.5916333577        8.7763287190        6.8653708640
  H        22.3743864728        7.9532509904        6.2408310614
  H        21.1556502696        7.9233018121        4.8956270663
  C        19.3723259896        9.6071629890        6.4098669576
  H        21.2018851491        9.4465423639        7.5541599319
  H        20.3057141301        7.7970403929        7.3056416780
  C        18.2447417888        9.7189919082        7.4299487185
  H        19.6452038840       10.5817898308        6.0748107489
  H        18.8999404096        9.1696386617        5.5293137722
  C        16.9526188592       10.4685080749        6.9659654649
  H        18.6563839391        9.9908826348        8.3319935576
  H        17.8359761465        8.6745929172        7.5796962652
  C        17.3267339825       11.7916454111        6.2557304639
  C        16.3605438203       11.3086411994        8.1072250701
  C        15.8589548521        9.6196550817        6.0903635766
  C        17.0142842589       12.9325741844        6.9288214085
  C        17.7462559308       12.0479324158        4.9575796664
  C        16.3766875459       12.6416465761        8.1286035619
  C        15.7742017390       10.6146104006        9.1676334837
  H        16.2620248425        9.1739617815        5.2041620135
  H        15.6002193021        8.7854021582        6.8271723125
  C        14.6352365732       10.4469904768        5.5941326765
  S        17.7398786521       14.3184052658        6.1975097591
  C        18.0676311649       13.3636439400        4.7951327340
  H        17.7441099534       11.2548496679        4.2068854095
  C        15.9074805042       13.2366522249        9.2497240700
  H        15.8533494647        9.5520103701        9.2908066800
  C        15.4032017153       11.2565295314       10.2640678622
  H        15.0355436801       11.1726157952        4.8504068531
  H        14.1303374940       10.9799716854        6.3460294633
  C        13.5008172891        9.6361188808        4.9152045387
  C        18.4797357307       13.9380013548        3.4845999975
  C        15.5419578440       12.5937765494       10.4195356628
  H        15.9015396758       14.3150162227        9.2780481874
  C        15.0541335740       10.8680381338       11.5165965341
  H        12.5342050056       10.1816929467        4.9316776454
  H        13.2855317104        8.7335509549        5.5081155088
  C        13.7505292303        9.2860698420        3.4557214020
  C        18.2797582048       15.2588808852        3.0944907051
  C        18.7557556360       12.9905270783        2.3175566464
  C        15.1605964472       13.2771565673       11.6989490630
  C        14.9039094931       11.9317436182       12.3780535919
  S        14.8131571881        9.3107801442       12.3168676960
  H        14.2627648472        8.3175255756        3.3700237972
  H        14.4006671941       10.0494388382        2.9855423342
  C        12.4733467121        9.2571163730        2.6715118278
  N        17.7719231978       16.2560775661        3.9149987997
  C        18.5071603332       15.7746648115        1.8531613115
  C        18.9744403153       13.5206134867        1.0466055200
  H        18.8957738146       11.8894158306        2.3885386170
  C        13.9103105415       14.1940004767       11.6887335290
  C        16.4147611655       14.0613114438       12.2789422890
  C        14.5383541152       11.5563938238       13.6256854754
  C        14.5169688201       10.1917564986       13.8072477983
  H        11.7805357868        8.5342902764        3.1013160222
  H        11.9450785635       10.1984542556        2.7676747449
  C        12.7486561200        8.9898139153        1.1790502161
  S        17.7875252331       17.7211808508        3.2791255280
  N        18.1109826744       17.1914854424        1.7070635100
  C        18.8180950511       14.9627753738        0.7271993107
  H        19.2808003517       12.8442889051        0.2880123044
  H        14.0729574850       14.9765189240       10.9997263362
  H        13.8248238150       14.6348533621       12.6344222407
  C        12.6168749944       13.5036920958       11.2292660737
  H        16.7281667817       14.8398778160       11.5587515010
  H        16.1355566957       14.5706447542       13.1656604673
  C        17.6844618602       13.3413946252       12.6872463449
  H        14.4587637845       12.4576403975       14.2626385133
  C        14.1727871320        9.5357122648       15.1348866851
  H        11.8032959358        8.6097254795        0.7611917279
  H        13.4048643914        8.1353397379        0.9864066099
  C        13.2754970638       10.1898431134        0.3684559197
  C        18.9473935813       15.5536345305       -0.5309854963
  H        12.9575956076       12.9261299027       10.3574160313
  H        12.2176215536       12.8880688413       11.9767164558
  C        11.4457735592       14.4576302327       10.7438036526
  H        18.0137177820       12.5708502556       11.9453407881
  H        17.5291514545       12.8079098895       13.6336945850
  C        18.8121182820       14.3912626035       12.9151786515
  C        14.1808283956        8.1959715919       15.4268771969
  C        13.9320626538       10.3708941653       16.3347919465
  H        12.4122041764       10.7862348991        0.0533448724
  H        13.9506803774       10.7260981309        0.9555329475
  C        13.9131214114        9.8539557523       -1.0173675197
  H        18.7018652563       16.5852099686       -0.5134916390
  C        19.4051889681       15.0606043907       -1.7540985809
  H        11.7394974709       14.8370220555        9.8065344865
  H        11.3864733997       15.2263704615       11.5279670223
  C        10.0959320821       13.7496836759       10.4716034349
  H        18.9886570165       14.8512420873       11.9275053913
  H        18.4784151364       15.0976195599       13.6577467917
  C        20.0942684319       13.6469492018       13.4231938248
  N        14.4922650996        7.1364649855       14.4984535753
  C        13.8418280151        7.6112582798       16.6445383160
  C        13.6526015187        9.8067586077       17.6273038653
  H        13.9735279683       11.4428620603       16.3283575677
  H        14.6766105099        9.1068404887       -0.8652993644
  H        14.2137438257       10.8539532624       -1.4360244658
  H        13.2048385296        9.5475651968       -1.7537145298
  S        19.7815810195       13.4106961995       -2.1262311204
  C        19.4632030606       16.0914926786       -2.8519670198
  H        10.3779997297       12.7380980593       10.1042292739
  H         9.4461638724       13.6091134813       11.3402436135
  C         9.2104185871       14.4106459785        9.4095446705
  H        20.6243875864       12.9822813421       12.6982097710
  H        19.7402824102       12.8627769585       14.0921610335
  C        21.1363536371       14.5042587655       14.2014726132
  S        14.3227342957        5.7058587887       15.1499437207
  N        13.9374048390        6.2533803151       16.6671299894
  C        13.6227200278        8.3193573906       17.8420991049
  H        13.5291130957       10.4819599587       18.4757426568
  C        20.0389901557       14.1036810578       -3.7845771809
  N        19.7796662462       15.4230880486       -3.9492663615
  O        19.0257983976       17.2694718653       -2.7519249537
  H         8.6289065714       15.1642295893        9.8990465703
  H         9.8396151619       14.7252222497        8.6102529321
  C         8.2674129231       13.4349081439        8.6899730968
  H        20.8902567943       14.4238443034       15.2780357674
  H        22.1754520055       14.1644089900       14.0381309924
  C        21.0793165939       15.9371571630       13.7516972905
  C        13.2956802903        7.6047448703       19.0403841948
  S        20.4660060374       13.1766308247       -5.2013708879
  C        19.7727640177       16.1637768539       -5.2291923140
  H         8.5729360249       13.4897266552        7.6255874919
  H         8.3998667565       12.3717563271        8.9056058190
  C         6.7995028021       13.9933254720        8.6734901388
  H        20.1416439457       16.3657045213       14.1764220702
  H        20.9466574417       15.9948421807       12.6779773878
  C        22.2268467051       16.8615098914       14.3686131141
  H        13.3702108191        6.5888469294       18.9974886612
  C        12.6588517632        8.0086223888       20.1408572818
  H        20.3823255876       15.7065804963       -6.0106088770
  H        20.2695507522       17.0535488265       -4.9836131886
  C        18.3397604593       16.3954938676       -5.6562680096
  H         6.3416211940       13.4785871089        7.8608246737
  H         6.8095249964       15.0671766017        8.5190921309
  C         6.0528668586       13.7182760739        9.9821601719
  H        23.1510566780       16.2672255921       14.1795863689
  H        22.3659217592       17.7863805451       13.8130416112
  C        22.0520952559       17.1725309816       15.8369523901
  S        12.0361480377        9.5941815616       20.4334579327
  C        12.5053029104        6.9943785186       21.2881854192
  H        17.8871745953       17.3609620957       -5.3390253363
  H        17.7058611210       15.5141683313       -5.6016789730
  H        18.3362383191       16.7018433615       -6.7015457800
  H         6.1419041564       14.6284941951       10.5760247687
  H         4.9837844092       13.6122239485        9.8017888255
  H         6.4747287480       12.8726786203       10.5359112472
  H        21.4841358218       18.1111895201       15.9157882149
  H        21.4894628817       16.4071774670       16.4246324098
  H        23.0009203530       17.2401274775       16.3358880631
  C        11.6090362775        8.9591295495       21.9840195208
  N        11.8248528447        7.6455926352       22.1853320097
  O        12.8643773777        5.8273073629       21.2797993408
  S        11.0727324107       10.0535322833       23.3260524357
  C        11.5401011730        6.9898426964       23.4477553581
  H        11.2833260572        5.9234814404       23.2319837679
  H        10.5699309858        7.3631470148       23.7994601225
  C        12.7193023328        6.9557058188       24.4252293113
  H        13.6253948300        6.4801134410       23.9968854842
  H        12.4143670431        6.2962295389       25.2207594108
  H        13.0462686375        8.0102795809       24.6940684153
