352
 i =    56400, time =    56400.000, E =        25.1528947523
  H        11.5915267601        4.5502320614       32.4153780265
  C        11.1295562723        5.3661872964       31.7701709488
  H        10.4790680910        4.7944820734       31.1608707344
  C        12.0178041859        6.2890899143       30.9020832867
  C        10.3309935125        6.3018797298       32.7164235924
  C        12.0576451376        5.7178493835       29.5114168026
  H        11.6736752922        7.3044154793       30.8434691541
  H        12.9320269789        6.2672985654       31.3733878218
  H         9.6983335161        7.0328113632       32.0842517327
  H         9.7043374138        5.7511167607       33.4770536786
  H        10.9810314017        6.9187235915       33.3093625489
  C        10.7520488234        5.8176242886       28.6949627587
  H        12.3460325859        4.7168734046       29.6065815647
  H        12.6928253074        6.2393651002       28.8577697903
  C        10.9377163018        5.3604687591       27.2091464492
  H        10.0651947117        5.1049041756       29.1041563239
  H        10.2373338957        6.7554647851       28.7755594861
  C         9.7177458694        4.6867155309       26.5442611753
  H        11.7514861422        4.5909877940       27.1946321623
  H        11.2488504946        6.3068363205       26.7530216575
  C         8.5148428035        5.6097162025       26.3675631542
  H        10.0685925278        4.4167482276       25.5615806195
  H         9.5338555233        3.8502193187       27.1390897834
  C         7.3940183255        5.0348173988       25.4888529152
  H         7.9615368319        5.5931126957       27.3266951631
  H         8.7913046587        6.5597794306       26.1038129203
  C         7.0595521362        3.6730222044       26.1684185343
  C         7.8519125063        4.3276017602       24.2249502189
  C         6.1598149577        5.9616414100       25.4128771555
  C         7.3089340950        2.5424615364       25.3582311722
  C         6.5495033586        3.3243898609       27.3981583718
  C         7.7590266420        2.9669936537       24.1349690709
  C         8.3976103681        4.9018433445       23.0416394811
  H         6.2910330009        6.6800219932       24.6232568674
  H         6.1525394606        6.5645995107       26.3302637498
  C         4.8523187736        5.2262257780       25.3157744667
  S         6.9799937584        1.0582219205       26.1555811691
  C         6.5209647299        1.9685725081       27.5753350723
  H         6.3138077812        4.1078429285       28.1453077713
  C         8.1961658855        2.2920267565       23.0738120862
  H         8.5114609340        5.9769415582       23.0121884689
  C         8.7058492604        4.1857988413       21.9670659096
  H         4.8580511358        4.4976342744       24.5253533685
  H         4.6506786912        4.6435560882       26.2117117584
  C         3.5802028214        6.1408251620       25.2961144395
  C         6.0354734784        1.2651964123       28.8291281566
  C         8.6192380721        2.8625659731       21.8630848698
  H         8.3108687723        1.2116429198       23.1545325296
  C         9.0754767112        4.5576328685       20.6701780345
  H         2.8761127750        5.6134427289       24.6296693371
  H         3.7563649276        7.1137070123       24.8036611158
  C         2.9100966800        6.1113928378       26.6981312348
  C         6.2327980134       -0.1293916735       29.1328224395
  C         5.3816174990        2.0409549056       29.8760086784
  C         9.0100353662        2.1470977008       20.6440263149
  C         9.2538675964        3.4801267478       19.8378862469
  S         9.3378790729        6.0227113922       19.8878516170
  H         2.1407607029        6.8915405246       26.8626891239
  H         3.6424422801        6.0947548756       27.4321035306
  C         2.2457116796        4.7493507046       26.9564472425
  N         6.6169944036       -1.1051904690       28.1504483179
  C         5.7988521250       -0.6597590521       30.3533993814
  C         5.1323387565        1.5241992200       31.1291759402
  H         5.3295731189        3.0883278078       29.6713300195
  C         7.7568445033        1.3790832277       20.1140890822
  C        10.1963768667        1.1668969423       20.6323591096
  C         9.5055107504        3.8083927637       18.4745920648
  C         9.6309783444        5.1978768950       18.3618730455
  H         1.7040912799        4.3513012338       26.1235549693
  H         2.9434271027        3.9843177389       27.0895025057
  C         1.2473958768        4.8425782881       28.1473151980
  S         6.2460279139       -2.5452764374       28.8020087578
  N         5.8726143890       -2.0788603742       30.3344581158
  C         5.3469767557        0.1086490468       31.4129075576
  H         4.7477280784        2.2218446206       31.8698561785
  H         7.5499611145        0.5171434151       20.7150564242
  H         7.9278363908        0.8549614813       19.1701820548
  C         6.4537153218        2.2287241866       19.7426348028
  H        10.5078788971        0.7271376417       19.6713692439
  H         9.8975925917        0.3680513157       21.2983088933
  C        11.5208557773        1.7716204866       21.1623507408
  H         9.7547648252        3.0181394247       17.7999487761
  C         9.7801061544        6.0166169805       17.1137109588
  H         0.7641375515        3.8880887240       28.3158270799
  H         0.4851454422        5.5389149044       27.9603775739
  C         1.9269237567        5.0727105494       29.4413174964
  C         5.2929974622       -0.5610334708       32.6952512155
  H         6.5850751367        3.0086818059       18.9650141216
  H         6.0461617911        2.6551972440       20.7064819265
  C         5.4770792852        1.3074307914       18.9736140664
  H        11.5247201321        2.4032597808       22.1016790025
  H        11.8933236048        2.4008970042       20.3728635297
  C        12.5758898876        0.6731197955       21.2895451595
  C         9.8265133993        7.4394349106       17.0224986273
  C        10.0506719306        5.3199368199       15.7962414499
  H         2.6262421332        4.3053200714       29.7760529239
  H         2.5412229105        5.9386405264       29.2851950435
  C         0.9390172859        5.3937227083       30.5356522261
  H         5.1582194771       -1.6331732944       32.7320933743
  C         4.9126399444       -0.1284676962       33.9651054375
  H         5.4297516159        0.3217870247       19.4205735448
  H         5.9266978424        1.2562147610       17.9315004674
  C         4.1117892430        1.9542234572       18.7959597752
  H        12.3082511977        0.1286217783       22.1661206649
  H        12.5495621757        0.1676970457       20.3831033510
  C        13.9638843027        1.2897161394       21.4892226203
  N         9.6773366375        8.3731078636       18.0683252133
  C        10.2263317737        8.1167019809       15.8378794665
  C        10.4556404583        5.9824653271       14.6604179594
  H        10.1576207757        4.2579569093       15.8863998723
  H         0.2791005625        4.4517773832       30.7077970285
  H         1.5402380561        5.5433313579       31.4413753098
  H         0.3472559194        6.3432007813       30.3868018863
  S         4.6202614155        1.5491019505       34.4305573310
  C         4.9494326633       -1.0636725297       35.0843470293
  H         3.9198364888        2.5763428226       19.6751083311
  H         3.9918736086        2.6665938670       17.8489876191
  C         3.0918082566        0.9364919819       18.6410409866
  H        14.1726828803        2.0289186693       20.7818125846
  H        14.6460947541        0.5578863869       21.0135138203
  C        14.3865055856        1.6958584206       22.9506657219
  S         9.7719060899        9.9189617537       17.5162857159
  N        10.2672125905        9.5104405151       15.9886178342
  C        10.4343140214        7.4641859963       14.6152399261
  H        10.7657661673        5.3569191487       13.7951080804
  C         4.4233330131        0.9282257232       36.0037081825
  N         4.5129745282       -0.3853750419       36.1358762014
  O         5.1360085909       -2.2697285371       35.0597526586
  H         2.0733842551        1.3554341274       18.8013814085
  H         3.1308349778        0.2811332296       19.5323691843
  C         3.1747381063        0.0771143673       17.3915405310
  H        13.6187473310        2.3821949970       23.3675380769
  H        14.3639100479        0.8799394125       23.6726296059
  C        15.5872196983        2.5928001780       23.0226907872
  C        10.7245685968        8.1905374484       13.4731482363
  S         3.8247563383        1.8120095469       37.3714863284
  C         4.2763218350       -1.0370474565       37.3886919555
  H         2.8698664864        0.7903554383       16.6344471386
  H         4.2086587704       -0.1675523378       17.1113062443
  C         2.2649511627       -1.2051214881       17.3390937804
  H        15.7371972784        2.7475939476       24.0538540633
  H        15.4258467994        3.6163840053       22.5006361083
  C        16.7016089185        1.8662333604       22.2945191242
  H        10.2516158856        9.1735086848       13.6019554322
  C        11.3188101847        7.8986712750       12.2967684764
  H         3.7577217922       -0.4214317596       38.1478124472
  H         3.5264024501       -1.8923900265       37.2750265128
  C         5.5174982253       -1.4580230566       38.1399466661
  H         2.3671323265       -1.5425502438       16.2858840221
  H         1.2691792744       -0.8440578447       17.5078191418
  C         2.4899152241       -2.3558185419       18.2200592577
  H        16.8049969059        0.8187303276       22.5626039581
  H        16.6141217778        1.8773024250       21.1831140092
  C        18.0365413216        2.6543783061       22.5780687351
  S        12.1390074842        6.3922190516       11.8043796092
  C        11.4260716425        9.0078096997       11.2858962728
  H         5.1277413440       -1.9863657006       39.0408211380
  H         6.0627117687       -2.1236029540       37.4544515343
  H         5.9621294969       -0.5489830907       38.4751182293
  H         2.5792585848       -2.1500132405       19.3229643199
  H         3.3372025096       -2.9482004982       17.9252766209
  H         1.6628716214       -3.0323580085       18.1306371389
  H        17.8777631896        3.6593236859       22.4120806492
  H        18.7411145782        2.3396779761       21.8245389837
  H        18.3269060400        2.4319034038       23.6562868507
  C        12.4574480391        7.2506198529       10.2578889704
  N        12.1204507431        8.5807648212       10.2045391899
  O        11.1109871626       10.1306866529       11.4812392741
  S        13.0685179148        6.5900924649        8.7574951179
  C        12.1682957342        9.3739166037        8.9796166141
  H        12.2919435715       10.4457773986        9.2961252555
  H        13.1739808179        9.0264415374        8.5111291163
  C        10.8262740258        9.1465625121        8.2108022235
  H        11.0670862997        9.4463976527        7.1918007706
  H        10.3652442264        8.1635327548        8.2518022352
  H        10.1081663321        9.8166771895        8.5628249531
  H        21.6820891815        8.6985270788        3.9446317511
  C        22.0127281277        9.6444751253        3.6219716162
  H        22.7778410257        9.4970716217        2.7690939491
  C        22.5282326411       10.3480070047        4.9243259747
  C        20.7938611530       10.3190710121        3.0084231272
  C        21.4658021406       10.5917219340        6.0484748489
  H        23.3376047055        9.6854492440        5.2799653590
  H        23.0917333588       11.2799226281        4.7077216854
  H        20.5551363591       11.3443041796        3.4377891232
  H        19.9439104160        9.6325932118        3.0971787785
  H        20.9350962015       10.3985467214        1.9267323145
  C        20.9028336320        9.3034450230        6.5598684078
  H        21.9719828078       11.0921766788        6.8783715368
  H        20.6691301777       11.1497721340        5.6117721750
  C        20.2672781552        9.5074350574        7.9576910879
  H        21.6890175401        8.5549401540        6.7551963305
  H        20.1588565905        9.0482411660        5.7233393269
  C        18.9868061405       10.4121083617        8.0299127033
  H        21.0015652178        9.8452385939        8.7692038481
  H        20.0598057427        8.5317770001        8.3641137269
  C        17.7313168529        9.7046425949        7.2990775209
  H        18.7214207049       10.6004091148        9.1161186426
  H        19.1371213438       11.4425397127        7.7264681304
  C        16.4939399268       10.5773692657        7.1646590615
  H        17.4655548016        8.8571328980        7.9402361299
  H        17.9609947404        9.3044952514        6.3006242906
  C        16.8798016540       11.8965321302        6.4884398581
  C        16.1013236102       11.2396409024        8.3966211697
  C        15.4339885989        9.8215389142        6.3240460190
  C        16.6254900149       13.0294013525        7.2613253464
  C        17.2512340776       12.2400460461        5.2027970250
  C        16.1008130418       12.6388679615        8.4494673574
  C        15.6128829570       10.6113248022        9.5205520631
  H        15.8847442416        9.5188721193        5.4251252286
  H        14.9961829654        8.9748634744        6.8380469419
  C        14.2570757187       10.6847581462        6.0384274391
  S        17.0230172266       14.4887701968        6.4767899596
  C        17.5347717264       13.5671005891        5.0604924912
  H        17.3063775154       11.4769406189        4.4465856718
  C        15.7021715297       13.2259190838        9.5649538747
  H        15.4346630899        9.5595748315        9.4904692297
  C        15.1981712018       11.2224478671       10.6515773201
  H        14.5782809563       11.6813307176        5.7779738518
  H        13.7657549944       10.8858887384        6.9985101738
  C        13.1099206310       10.1599435134        5.2101435273
  C        18.0390167722       14.3065899812        3.8617539763
  C        15.3246835476       12.5547879513       10.7030663510
  H        15.6549092962       14.3093899756        9.5642600390
  C        14.8407266351       10.8726923408       11.8791753550
  H        12.3477383962       10.9437434523        5.2679674848
  H        12.7895088881        9.2304461182        5.5766918442
  C        13.5144181258       10.1055274630        3.7178497091
  C        18.0499572262       15.7178446052        3.6791945197
  C        18.3674100108       13.5573749892        2.6751513349
  C        15.0142166157       13.2510603344       11.9578716128
  C        14.6895389870       11.9714160139       12.7060325559
  S        14.6689860583        9.4257977888       12.7232621283
  H        14.0967572944        9.2314386729        3.5271832406
  H        14.1466391531       10.9995560721        3.4837791464
  C        12.2642823288       10.2537941054        2.7736548249
  N        17.8075993469       16.6951314511        4.7233213886
  C        18.3253876450       16.3310987269        2.5017535575
  C        18.5755916132       14.1483806784        1.4087697649
  H        18.5064696754       12.4971926598        2.7063591977
  C        13.7350116860       14.1133721674       11.9882942902
  C        16.1906518154       14.0003543957       12.6972830902
  C        14.2154975515       11.6038843007       14.0018270884
  C        14.2338848593       10.2419621781       14.1985750974
  H        11.4970529820        9.5757666789        3.2053107661
  H        11.7820850174       11.3384040209        2.7654019154
  C        12.4337502535        9.7133679381        1.3878289652
  S        18.1914929481       18.1387537699        4.0635894584
  N        18.4416263711       17.7376309747        2.5716236181
  C        18.6488050473       15.6424504036        1.3187267243
  H        18.9250331507       13.5533353795        0.5857429936
  H        13.8570372696       15.0981862298       11.3975187566
  H        13.5047100435       14.5339537032       13.0037361797
  C        12.4552391061       13.3272833648       11.5131206753
  H        16.5738461073       14.8083774331       12.1157090352
  H        15.8677271379       14.3920357481       13.6849807172
  C        17.4880166242       13.1637994823       12.9149317624
  H        13.9445240352       12.4199215677       14.6375077066
  C        13.8980398786        9.4820262801       15.4439325669
  H        11.4397549839        9.5706535500        0.9060120912
  H        12.8907428782        8.7628005070        1.5619333068
  C        13.0922166624       10.6886609886        0.3758966057
  C        19.0209954866       16.3577156962        0.1716030895
  H        12.6430072631       12.6734159802       10.7186240428
  H        12.1570112757       12.6934607574       12.3286727909
  C        11.2391334190       14.1733874658       11.1070753857
  H        17.9129584308       12.7922989855       12.0314563496
  H        17.2112932539       12.2484829752       13.3868726240
  C        18.4944216244       13.9151700487       13.7332799428
  C        13.7782892138        8.0309890825       15.5100258762
  C        13.7365639754       10.2106697384       16.7252325193
  H        12.6450190929       11.6828716905        0.5951547639
  H        14.0991392924       10.9014630317        0.7068017850
  C        13.1756675748       10.5012972152       -1.1023946453
  H        18.8220723946       17.4102067930        0.2005639787
  C        19.2988019131       15.9840839035       -1.1219890651
  H        11.6285781681       14.8901379545       10.3289932071
  H        10.8696460130       14.8015409539       11.8501785497
  C        10.0587818235       13.2853267865       10.6452121836
  H        19.0162702522       14.7042543925       13.1663790699
  H        18.0280907566       14.4138761972       14.5188744416
  C        19.6599613705       12.9800550456       14.3271223661
  N        13.9355698794        7.2051674413       14.3648627926
  C        13.5377015844        7.3274114663       16.6540148595
  C        13.4270102226        9.4265605485       17.8979451171
  H        13.7987645653       11.3332035371       16.7609921492
  H        12.3215602006       10.0426604112       -1.6054746147
  H        13.9490271335        9.7974316446       -1.4156885262
  H        13.4160344153       11.4444060424       -1.6140981596
  S        19.6772087101       14.4328658172       -1.8504948033
  C        19.4164688774       17.1552809612       -2.0890668537
  H        10.3721474063       12.5160049419        9.9763402994
  H         9.6218509355       12.6467399168       11.4544872876
  C         8.9042284359       14.1765077803        9.9727205105
  H        19.9798538161       12.2966896352       13.5086125786
  H        19.1706801880       12.2863983332       15.0244724024
  C        20.7634060684       13.8241602447       14.9386246787
  S        13.6913501240        5.6385957186       14.8205729923
  N        13.5448876836        5.9561980108       16.4235365662
  C        13.2552362638        7.9293925522       17.8838813884
  H        13.4281422336        9.8317097551       18.8941571294
  C        19.7624761474       15.3699638969       -3.3302747865
  N        19.7381759855       16.7211146758       -3.2738970761
  O        19.3029227796       18.3518777961       -1.8013990884
  H         8.5333335428       14.7647267185       10.7510658388
  H         9.3698217002       15.0080754913        9.3486188612
  C         7.9048664436       13.4871923466        9.1107038186
  H        21.1345008624       13.1856654528       15.7161502831
  H        21.4005767927       13.8107137778       14.0813995364
  C        20.5062495021       15.2809625529       15.3910790910
  C        12.9718371541        7.1331064658       19.0416583238
  S        20.4047183500       14.6805112763       -4.7959033404
  C        19.7158724298       17.6772877328       -4.3772594884
  H         8.2812012334       13.3184090701        8.0867836576
  H         7.8756523183       12.4516931367        9.4747915436
  C         6.4578953412       14.0684341801        9.1868702131
  H        19.7783210605       15.2642371983       16.1487768257
  H        20.0149833359       15.9323763097       14.6311976827
  C        21.8025003826       15.9749040882       15.9368226883
  H        12.9544205515        6.1319776796       18.9322494797
  C        12.6124438872        7.4231559222       20.3539436737
  H        20.4588630168       17.2789683980       -5.0312215243
  H        20.0786394944       18.6536802525       -4.0532355453
  C        18.2285339421       17.7710809553       -4.9115535260
  H         5.9476128999       13.5319145283        8.4091166241
  H         6.4201133398       15.0571246440        8.9552200367
  C         5.7467387506       13.6751936863       10.5091596335
  H        21.8358290945       16.0352697483       17.0555125574
  H        22.6904388691       15.4157714964       15.6539736383
  C        21.8951631738       17.3960081988       15.3764814139
  S        12.1972459746        9.0079877878       20.9839248265
  C        12.4824710770        6.2978208080       21.3076132846
  H        17.7996832870       16.7710065545       -5.1523685228
  H        18.2441716957       18.2508940362       -5.8871956144
  H        17.5346114825       18.2382496043       -4.2750831073
  H         6.0077162952       14.5030040108       11.1143005519
  H         4.6618855363       13.6158061222       10.4216825513
  H         6.2369950808       12.7892600214       10.9996215200
  H        21.0111194768       18.0283780105       15.5862935242
  H        22.8185065914       17.8760047020       15.8060961758
  H        21.9463296359       17.3807936114       14.2527566551
  C        11.9408737882        8.1429646781       22.5381074218
  N        12.1192491594        6.8207988025       22.5380321584
  O        12.5889961704        5.0789914409       21.0215950708
  S        11.4984903177        8.8041070677       24.1012516697
  C        11.9268140130        5.8418989550       23.6122546382
  H        11.4298301972        4.8679366706       23.2684564383
  H        11.1068577208        6.1512229395       24.2824816072
  C        13.1376263732        5.6355399329       24.4180977943
  H        14.0161541985        5.7822654832       23.7666163802
  H        13.2057511449        4.5906465448       24.7566117643
  H        13.0996621266        6.3465035224       25.2688882524
