352
 i =    20600, time =    20600.000, E =        24.7998006255
  H        11.6991691929        7.1034191625       31.9761835254
  C        11.4261284695        6.0318230113       32.0459709777
  H        12.3377878941        5.4889920784       31.9338573963
  C        10.3940263400        5.7488248412       30.8894527952
  C        10.6341277625        5.8147813398       33.3228931248
  C        11.1186613485        5.8159979354       29.5580459638
  H         9.8174758186        4.8310959368       31.0860499270
  H         9.7086871904        6.5916995768       31.0067653173
  H         9.9809465480        6.6876915125       33.3417638763
  H        10.1313465160        4.8278117017       33.4394269989
  H        11.2754215746        5.8717817086       34.2198570282
  C        10.0247589014        5.6860252907       28.4047771674
  H        11.7431846511        4.9439656614       29.6610815554
  H        11.7470749314        6.7184962510       29.5153917577
  C        10.5095987538        5.7122125595       26.9802332531
  H         9.4485806844        4.7696281940       28.4855107125
  H         9.3834403285        6.5088073210       28.5362780325
  C         9.5585316758        4.9775075880       25.9896244383
  H        11.5360281833        5.3648941619       26.9676142203
  H        10.4322249363        6.7162444281       26.6457833249
  C         8.3133339376        5.8543500427       25.8004791353
  H        10.0986540627        4.6756511053       25.0977565760
  H         9.1719334098        4.1008558834       26.4804689653
  C         7.1438252677        5.1076849331       25.1156584215
  H         7.9274362707        6.3474167606       26.6333354062
  H         8.6723686482        6.6628182963       25.1604696859
  C         6.7943767754        3.7741546877       25.8080242441
  C         7.6290968111        4.3678593234       23.9217681799
  C         5.9454067056        5.9944276169       24.8947310765
  C         7.2123973854        2.6506834274       25.1100450556
  C         6.1905986024        3.4356247660       27.0388734208
  C         7.6856296248        3.0317481778       23.8836339281
  C         8.0190657756        5.0574116740       22.7810246339
  H         6.1985008704        6.6984805114       24.0569160630
  H         5.7602840247        6.5346072209       25.8760998918
  C         4.6159432005        5.3034592952       24.5371077392
  S         6.8501128422        1.1228495328       25.8436856419
  C         6.1500691845        2.0798426229       27.2025614345
  H         5.9748596657        4.2078195778       27.8082176050
  C         8.1496022457        2.3687330853       22.7686935571
  H         8.1158949688        6.0745189259       22.7347843660
  C         8.5461377247        4.4363543175       21.7058497520
  H         4.8110331858        4.6963164109       23.6712524156
  H         4.3042076243        4.6107811636       25.2931702558
  C         3.4626647446        6.2287447960       24.3285950250
  C         5.7336568800        1.4823352916       28.5013758752
  C         8.5832475610        3.0775804508       21.6014898814
  H         8.3155100885        1.3006229972       22.8147409472
  C         9.0560614486        4.8081235644       20.4878158667
  H         2.7520330283        5.7825359048       23.5768769060
  H         3.8909433603        7.1107867800       23.8941413364
  C         2.6806708998        6.4882327159       25.6715730715
  C         5.7903281734        0.1091855606       28.7495942893
  C         5.3754500475        2.3324944625       29.6159813036
  C         9.0799732667        2.3898999828       20.3477516865
  C         9.3996563246        3.7703953280       19.6645084350
  S         9.3596952851        6.2833117216       19.7461713023
  H         2.0494552413        7.3625450109       25.5393957795
  H         3.3591819897        6.7476718616       26.4687230230
  C         1.8991548714        5.2483066689       26.3090807231
  N         6.1688931266       -0.8502833692       27.8399377062
  C         5.5267574180       -0.4072699324       30.0228070622
  C         5.1023967354        1.8294563224       30.8846611895
  H         5.3520898802        3.4103991311       29.5217731869
  C         7.9963257538        1.6987315060       19.4853679704
  C        10.2762242202        1.4310847358       20.4382710268
  C         9.8472852497        4.1693879456       18.3798944982
  C         9.8627469540        5.5404123341       18.2354931378
  H         1.2249738393        5.0760472312       25.5165079236
  H         2.5668266812        4.4937191486       26.6097808550
  C         1.1585787333        5.5827205529       27.5835775059
  S         6.1402649778       -2.3477932408       28.6216747776
  N         5.7307748606       -1.7996774081       30.1052827049
  C         5.1338322084        0.3212070718       31.1633589878
  H         4.7643835931        2.5229257888       31.6477044650
  H         7.7738540263        0.8032950195       20.0149863132
  H         8.4788822118        1.3786492104       18.5832015736
  C         6.7046837984        2.4968171722       19.0550682482
  H        10.4740962012        0.9595202840       19.4663961040
  H         9.9864656968        0.6518316727       21.1279985234
  C        11.5217032946        2.1619595008       20.9894941377
  H         9.9770272846        3.4018500176       17.6216103844
  C        10.2141027413        6.2561366992       16.9863612876
  H         0.7079581033        4.7080517061       27.9366186415
  H         0.5184994238        6.4372256358       27.6347095533
  C         1.9894402033        5.9173766597       28.8006595048
  C         5.0650320389       -0.3665975939       32.4853807839
  H         6.9986668455        3.4216592546       18.6157226885
  H         6.1978937300        2.8959974904       19.9519203617
  C         5.6940716127        1.7301415847       18.2523181139
  H        11.4208045449        2.1459687340       22.0730971958
  H        11.6935514634        3.2067660642       20.7528431583
  C        12.8257318295        1.4467089601       20.5731127551
  C        10.2432558369        7.6769691869       16.8791517939
  C        10.4859905705        5.5639504231       15.7054979592
  H         2.6544320343        5.0892236988       28.9847486799
  H         2.5256577734        6.9150262397       28.6808045104
  C         1.0913358691        5.9270270970       30.0446172032
  H         5.2133931599       -1.4001306497       32.4272961383
  C         4.7216673523        0.0934383748       33.7100467711
  H         5.3017298509        0.9166877777       18.9100566914
  H         6.1733223954        1.1002778513       17.4910550092
  C         4.6005843719        2.6819519629       17.9232945088
  H        12.9913318790        0.5871150311       21.1620380196
  H        12.6108916654        1.1536447619       19.5012019884
  C        14.1176179314        2.2804431061       20.6547952006
  N        10.1542670283        8.5402544372       17.9535703439
  C        10.4701005130        8.3637576587       15.6973475784
  C        10.7637844076        6.1835236004       14.5252578027
  H        10.3237969019        4.5333038682       15.6501863851
  H         0.1500947607        6.3234155717       29.8834188819
  H         0.7995569105        4.9671349424       30.3920155674
  H         1.5691634670        6.3392443862       30.8919268199
  S         4.3977146424        1.7018226890       34.1849746962
  C         4.6580699478       -0.8638394905       34.8619797884
  H         4.5823665696        3.4644144749       18.6374956748
  H         4.8245333742        3.1938076442       17.0427034408
  C         3.1711604355        2.0921064058       17.9745989706
  H        13.7483378917        3.1663275423       20.0532154208
  H        14.9838159776        1.8545747075       20.1474622090
  C        14.4853859973        2.7251218008       22.0531059346
  S         9.9728109908       10.0649364777       17.3859024706
  N        10.4837197656        9.7871283270       15.8516004253
  C        10.8231663396        7.6858220756       14.5023384959
  H        10.8511743061        5.6666071709       13.5909284618
  C         4.0498501411        1.0849576247       35.8159844359
  N         4.1536411008       -0.2023371816       35.9620945859
  O         4.8990140173       -2.0927778516       34.8269608931
  H         2.4113573752        2.7076433526       17.6111710113
  H         2.7739555747        1.9243871091       18.9594372600
  C         3.1474613258        0.7504943704       17.1890383464
  H        15.0490323219        3.6410335245       22.1185862771
  H        13.5785079156        3.0666537693       22.6045834918
  C        15.2265680534        1.7183761089       22.9930280601
  C        11.0261403459        8.3879892437       13.2942772114
  S         3.6971228890        2.1315040647       37.2038051034
  C         4.0256103954       -0.9686261729       37.1670287821
  H         2.3432136380        0.9376958693       16.3385266202
  H         4.0845273112        0.4687626594       16.7557903718
  C         2.5537582620       -0.3541107290       18.1272680058
  H        15.3310004095        0.7693156657       22.5102721360
  H        14.5884192703        1.4610172264       23.8735854917
  C        16.5721557408        2.2406990707       23.5024371056
  H        10.7910445950        9.3857583860       13.3027710670
  C        11.5853892042        8.0372085356       12.0863982195
  H         3.3520186530       -0.4605975248       37.8462707630
  H         3.7234820335       -1.9883114333       37.0296303052
  C         5.3470927103       -0.9524648575       37.9813381982
  H         1.7167194186       -0.0317393229       18.7732258045
  H         3.2878727187       -0.6085795036       18.8736559718
  C         2.1321812780       -1.5259520747       17.3120535300
  H        16.4287437045        3.2660875369       23.8760940393
  H        16.9427757045        1.6114267238       24.2847231719
  C        17.6507437907        2.2762618318       22.3749092356
  S        12.2766856196        6.5093045326       11.6178387573
  C        11.6135257276        9.0280411023       11.0273124350
  H         5.5445900918        0.0395354474       38.3639133775
  H         5.2677259527       -1.5625041186       38.8754583440
  H         6.1049973609       -1.4411814948       37.3739768505
  H         1.4352260470       -1.0566399322       16.5829837750
  H         1.5474496710       -2.2255135105       17.8805307439
  H         2.9452400636       -1.9632310345       16.7094060571
  H        18.5802335184        1.8090845968       22.7330103423
  H        17.8155126189        3.2175464465       21.9069113018
  H        17.4546834009        1.5600898397       21.5405649716
  C        12.6488466274        7.2605034071       10.0396254480
  N        12.1100194494        8.5197939709        9.8955456836
  O        11.1674248498       10.1180119959       11.2228570882
  S        13.2628035953        6.3856116473        8.5782027204
  C        12.3711168714        9.4363959371        8.8074634562
  H        13.0157745495       10.2365605716        9.1754825769
  H        13.0476217451        8.9333619030        8.0746113966
  C        11.0128190031        9.9291530982        8.1744798707
  H        10.3198685517       10.4306451353        8.8045164578
  H        11.1412762356       10.5695643270        7.3457407980
  H        10.5205113628        8.9742668368        7.9117682270
  H        21.3475634049       11.3398365446        3.4604283228
  C        21.7607951245       10.3261480198        3.5726501703
  H        20.9603546591        9.5235034447        3.3387430341
  C        22.5011406064       10.1901224456        4.9143556696
  C        22.8779573219       10.1840049251        2.5437838457
  C        21.5828841149       10.5113760049        6.0735572259
  H        23.0420743129        9.2923102109        5.0002945066
  H        23.3073746616       10.9470654297        4.8665199738
  H        23.3389252432        9.2265357231        2.6610681558
  H        23.5777485892       10.9177456095        2.6838271900
  H        22.3402236520       10.1804629299        1.6168783793
  C        21.0176207707        9.2784156897        6.8287903629
  H        22.2022135959       11.0552238192        6.7897503391
  H        20.8992058390       11.2254881469        5.7280239341
  C        20.2213655156        9.6908286781        8.1073084595
  H        21.8999364794        8.7017155239        7.1544289883
  H        20.4387237117        8.7179183403        6.1257478564
  C        19.0690993229       10.5111631708        7.7850247055
  H        20.8948915020       10.1087610680        8.7861587539
  H        19.8748121980        8.8473470827        8.5401611562
  C        17.9592633372        9.7649134975        7.0119777760
  H        18.7392960981       10.6719086295        8.8084106493
  H        19.3763007693       11.4208369054        7.2891191990
  C        16.7193581285       10.6941968768        6.7400791863
  H        17.5456427858        8.9920870045        7.5848572565
  H        18.2998028501        9.3007312389        6.0577841696
  C        17.1156198048       12.0585488214        6.0883905112
  C        16.3130300362       11.4101998450        7.9767998200
  C        15.5084119379       10.0098499743        6.0576586917
  C        16.9584235433       13.1398440406        6.9577962752
  C        17.5105228185       12.4730477408        4.8145468927
  C        16.4689627578       12.7563958123        8.1656424692
  C        15.8061622959       10.7886479760        9.1114575548
  H        16.0623649156        9.5758738814        5.2159484416
  H        15.1636227283        9.1235765425        6.6097715664
  C        14.3686326754       10.9972805012        5.8197324568
  S        17.4494888147       14.6214057891        6.2032348606
  C        17.6324969500       13.8015723015        4.6412285987
  H        17.4724668350       11.6736534006        4.0889350500
  C        15.9737643101       13.3907669837        9.2796948079
  H        15.7950717871        9.6984491233        9.0503773467
  C        15.4749070404       11.4132980219       10.2759468803
  H        14.7796116287       11.8818279888        5.3379516623
  H        13.8898347422       11.3695285782        6.6768026592
  C        13.3413473692       10.3446552271        4.9465995754
  C        18.0124026254       14.5271486629        3.3498749147
  C        15.5196060720       12.7218177146       10.4276246986
  H        16.0098349651       14.3955122402        9.3501040583
  C        15.0018805578       11.0221756734       11.5135860848
  H        12.2838677603       10.7165405793        5.1386067414
  H        13.3818181128        9.2503878774        4.9758006870
  C        13.5638595270       10.6241524576        3.4425302715
  C        18.0251729985       15.9081922901        3.1179211735
  C        18.4004265213       13.6415795279        2.2306320981
  C        15.1331633550       13.4492570678       11.7209486233
  C        14.7806966701       12.0971604565       12.3780346599
  S        14.6001455724        9.4941245098       12.1629974569
  H        14.6043091107       10.6565020821        3.1755675524
  H        13.1600730984       11.5657768050        3.1697914669
  C        12.8235429124        9.4768725904        2.7231595179
  N        17.7323026462       16.8926032339        4.0546373649
  C        18.2438853903       16.4774717117        1.8912042306
  C        18.7015830803       14.2135956250        0.9657085180
  H        18.3234029314       12.5489630445        2.2367472705
  C        13.8039641711       14.2192092356       11.5044171993
  C        16.2070241680       14.3352391005       12.4175333109
  C        14.4395531481       11.5983621660       13.6893567006
  C        14.1785524906       10.2158903386       13.7174764738
  H        13.4145987745        8.5654982048        2.8135115664
  H        11.9084182488        9.2361114732        3.2203567655
  C        12.6431333143        9.9168915876        1.2356021697
  S        17.9609679651       18.3478825564        3.4455148207
  N        18.2372209807       17.9216690528        1.8677294476
  C        18.6429233150       15.6914155531        0.7461896584
  H        18.8420040823       13.6165328121        0.1197355304
  H        14.0254628482       15.1717238545       10.9656559092
  H        13.4225780424       14.5646630047       12.4431936653
  C        12.5992095429       13.3865644642       10.9007106334
  H        16.3536078819       15.1732539549       11.7336711646
  H        15.7125303024       14.7885550053       13.3096378042
  C        17.4384291855       13.6502392337       12.9000474508
  H        14.3070350880       12.3484307901       14.4138186837
  C        14.0305552216        9.3879399473       14.9694635703
  H        11.9579051825       10.7793293025        1.2472843123
  H        12.0058931270        9.2282502664        0.7795613070
  C        13.9344610525        9.8882447346        0.3526099646
  C        18.8878244131       16.3729227132       -0.5395174946
  H        12.9602947149       12.8720819124        9.9492267535
  H        12.4204469671       12.5765234548       11.5795391344
  C        11.3495808460       14.1887478438       10.7747828815
  H        18.3710331542       14.1331838101       12.5339390815
  H        17.4940728580       12.6279611838       12.5861028959
  C        17.6331118737       13.7329820138       14.4045305924
  C        14.0867839715        8.0124969016       15.1091099328
  C        13.7802255572       10.1585185759       16.2044302829
  H        14.5842492405       10.6977128366        0.6756019300
  H        14.4803139225        9.0333120169        0.5910714573
  C        13.7989340405       10.0331363164       -1.1804417241
  H        18.6031516961       17.4193390224       -0.5840694881
  C        19.2860120883       15.9430831860       -1.7991962528
  H        11.4650666442       14.8172537839        9.8916841291
  H        11.2419691136       14.8307877634       11.6835782127
  C        10.0658805661       13.3646136682       10.6262131741
  H        17.6504583236       14.7524904744       14.6001960543
  H        16.7109169122       13.3913805375       14.8243903820
  C        18.8397500101       13.0166035852       14.9255120419
  N        14.2139335882        7.0882800568       14.0330669417
  C        13.9038000394        7.3794734620       16.3195382641
  C        13.5408384839        9.5513416013       17.4655511714
  H        13.6678916956       11.2751323482       16.1915589405
  H        13.6182253681       11.1101352525       -1.3584358976
  H        12.9943363670        9.4583391676       -1.5805790864
  H        14.8422856403        9.7126790220       -1.5804317470
  S        19.6377035647       14.4077038895       -2.4209081713
  C        19.2898590534       17.0357308688       -2.8514917127
  H        10.3500152320       12.6050761470        9.9360139249
  H         9.7566203504       12.8650696437       11.5194709619
  C         8.9987656331       14.1924916671        9.7960580088
  H        19.0127242334       12.0764418472       14.2962914548
  H        18.6051447118       12.6449952181       15.8941584361
  C        20.1645517711       13.8854502133       14.7637817222
  S        14.0012617797        5.5907351893       14.5644762981
  N        13.8088942407        5.9520987762       16.1429635398
  C        13.6297357748        8.0417515473       17.5565142514
  H        13.3628582297       10.1019820487       18.3805727912
  C        19.6520533290       15.1136975935       -3.9530278624
  N        19.5174357736       16.4774919060       -4.0349466725
  O        19.0354842553       18.2261533276       -2.6282470637
  H         8.5162730229       15.0236160151       10.2889196375
  H         9.4183587211       14.4418593157        8.7832340258
  C         7.8310930328       13.2391775949        9.4727616920
  H        20.8346163250       13.6698011495       15.6337815845
  H        20.6897011086       13.4037785672       14.0238558673
  C        20.1957442314       15.3582614732       14.3445860484
  C        13.2382019852        7.2861939104       18.7066315976
  S        20.1699360650       14.2067055463       -5.3676187061
  C        19.3404931767       17.2136259815       -5.2418920338
  H         8.2602177027       12.5442523664        8.8262147732
  H         7.5154645451       12.7816905477       10.4466270988
  C         6.5863858671       13.9048177112        8.8213148894
  H        19.5100725325       15.9563366684       14.9394301646
  H        19.7843660769       15.5250817741       13.3398688499
  C        21.6615557115       15.8798548095       14.5872285716
  H        13.2789237920        6.2309882332       18.6426025115
  C        12.7061923804        7.5939655046       19.9452499744
  H        20.2072873131       17.0361033606       -5.9453325264
  H        19.3931714434       18.2450594305       -4.9630599117
  C        17.8516692364       17.2145177754       -5.9369838815
  H         6.1308612733       13.2624111962        8.0591986747
  H         6.9262187403       14.8394090314        8.3671505735
  C         5.5591702417       14.2508398102        9.8980350286
  H        22.1053071357       15.9144317212       15.5595360570
  H        22.2142045920       15.1827098945       13.8749382684
  C        21.7094984684       17.3455569001       14.0438622866
  S        12.4834007588        9.1798640277       20.6348173700
  C        12.3649720556        6.5319470167       20.7866167708
  H        17.8271157942       16.3602203108       -6.6708173622
  H        17.8906458556       18.1910117573       -6.4519396400
  H        16.9599267337       17.1762411522       -5.3968066323
  H         5.3251821667       13.3554822680       10.4911647613
  H         5.8805440067       15.0592085998       10.5173518639
  H         4.7254321802       14.6221944147        9.3506171030
  H        21.4486513051       17.5528072827       13.0101072779
  H        21.0249195553       17.9999519503       14.5678517292
  H        22.6917345864       17.6585546701       14.2141367485
  C        11.8031769859        8.3438991642       22.0086095318
  N        11.6889713318        7.0074289596       21.8699581253
  O        12.6018013194        5.3521705138       20.5699239235
  S        11.3273400333        9.1732422946       23.5252714860
  C        11.3217460353        6.0932860281       22.9790262871
  H        11.1380203398        5.1132588390       22.4972461636
  H        10.4125671093        6.4234379152       23.5911295248
  C        12.5025634498        5.8511180621       23.8624122948
  H        12.9120565023        4.8400091231       23.8207076940
  H        12.3604031537        6.2504897050       24.8917190987
  H        13.3152014482        6.5119413280       23.4244098281
