352
 i =    60200, time =    60200.000, E =        24.7897688758
  H        10.2159202761        4.7686191112       31.4679529917
  C        10.5781645240        5.7225474118       31.7216553114
  H         9.8345447345        6.4839558008       31.4770480244
  C        11.8058689912        6.1288689072       31.0093927793
  C        10.6776432917        5.7845985329       33.2661727715
  C        11.8823311891        5.6836811589       29.4847485528
  H        11.8757995187        7.1942480416       31.1125623705
  H        12.6863617968        5.7616659274       31.5329655037
  H         9.7407770606        6.1379260009       33.6840170145
  H        10.8615424021        4.7192139139       33.5916938725
  H        11.3604153606        6.5587761096       33.6478541761
  C        10.6456297025        5.7267067566       28.6283445437
  H        12.2181133087        4.6162454820       29.4966037627
  H        12.5393389745        6.3578661747       28.9935041302
  C        10.9395117489        5.4651437169       27.1901670994
  H         9.9112526602        4.9602995930       28.9541417679
  H        10.0989478124        6.6412706601       28.7778837353
  C         9.7409938634        4.7596476887       26.4424044505
  H        11.8011510629        4.7749051837       27.0187266617
  H        11.1570802438        6.3894070579       26.6411917754
  C         8.5784129382        5.7206144049       26.0528215494
  H        10.2688132531        4.3313303168       25.5958527850
  H         9.3986296886        3.8266482503       26.9617414605
  C         7.4101826527        5.0122260679       25.2997574396
  H         8.3103085204        6.1039683837       26.9995628436
  H         8.8185947188        6.6379987652       25.4811390803
  C         7.0009620945        3.6950741255       25.9743908342
  C         7.8015466583        4.2016616898       24.1432232683
  C         6.1939268710        5.9658869283       25.0100433137
  C         7.2300063215        2.5526907688       25.2650920667
  C         6.4601215415        3.3552716060       27.2688684602
  C         7.6707900330        2.8712285800       23.9995876250
  C         8.2472075055        4.8113245899       23.0012720993
  H         5.5260162955        5.7260881103       24.0967715518
  H         6.7695983402        6.8819356894       24.6907779497
  C         5.1887874410        6.4339665164       26.0330812464
  S         6.6985254931        1.0744664750       26.0368096298
  C         6.1972987032        1.9848820076       27.3945452846
  H         6.2476718428        4.0730549769       28.0261029852
  C         8.0370368203        2.2941357013       22.8541825932
  H         8.1941567010        5.8659040208       23.0566577280
  C         8.5782851377        4.2881518961       21.8089076280
  H         5.2999821308        5.7968889529       26.8644234123
  H         5.3087802526        7.4867088219       26.3782838199
  C         3.7377713026        6.1965605040       25.4709464408
  C         5.6590592184        1.4114360976       28.6754593190
  C         8.5079213016        2.9536533752       21.7307205377
  H         8.0167838995        1.2318991865       22.8214519636
  C         8.8739352649        4.6047221025       20.4887040362
  H         3.6707061562        5.2132922131       24.9840500039
  H         3.5662419368        6.9544535098       24.7011816146
  C         2.6511289213        6.4179429153       26.5009634576
  C         5.6521049139        0.0125616294       28.9698642380
  C         5.1473964712        2.2765709276       29.7839224104
  C         8.8409477194        2.1727928294       20.4716267837
  C         9.0650351371        3.4768948832       19.7350360234
  S         9.2335604937        6.0406554775       19.5645914362
  H         2.0058179596        7.1266443305       26.0265197378
  H         3.1277813695        6.9044915380       27.3373709476
  C         2.0107618817        5.1655987897       26.9781763802
  N         6.1017864912       -0.9962492656       28.0399772219
  C         5.3791001984       -0.4815265694       30.2428053890
  C         4.9923864533        1.8388866511       31.1466246041
  H         4.9493821104        3.3335093417       29.4762770312
  C         7.6865601610        1.3952976398       19.8504795167
  C        10.1542662148        1.2966904232       20.4609699719
  C         9.5014595030        3.7992455336       18.3928417095
  C         9.6658521434        5.1366337560       18.1558049591
  H         1.4355501920        4.7685815638       26.1577320031
  H         2.8269015683        4.4535902380       27.1462306311
  C         1.1493072248        5.4825002267       28.2238243052
  S         6.1107605585       -2.4229887830       28.7536799069
  N         5.5239211359       -1.8879619698       30.2270961999
  C         5.0693070207        0.3572965547       31.3927691840
  H         4.7913185054        2.4890079270       31.9393958564
  H         7.4028318506        0.5414920767       20.4559653140
  H         8.0511141341        1.1426041089       18.8626306405
  C         6.3829645222        2.2519586191       19.6002193834
  H        10.3360197477        1.0003247125       19.4295422637
  H         9.9930008023        0.4043139801       21.1104587342
  C        11.3542441135        2.1351860142       21.0454508929
  H         9.6440215730        2.9908193594       17.7845736545
  C        10.0353783285        5.8126016745       16.8466835932
  H         0.2884227288        4.7407037080       28.3403545817
  H         0.7700964463        6.4649814687       27.9934862176
  C         1.9721194893        5.5300544241       29.5320046492
  C         4.9575527423       -0.2276921357       32.6631828515
  H         6.4336532496        3.1105282363       18.8485460596
  H         6.1253537105        2.6961873816       20.5344075582
  C         5.0853614258        1.3465617020       19.1923735060
  H        11.1095328961        2.6005858478       21.9655931680
  H        11.6595975837        2.8861361422       20.3229089603
  C        12.5302992416        1.1380417544       21.1129327422
  C        10.1381892488        7.2620378944       16.6801573502
  C        10.3253666148        4.9788022597       15.6559916069
  H         2.6674446384        4.6897722069       29.5361964584
  H         2.7304999436        6.2512746308       29.4891568957
  C         1.0933451775        5.6417449798       30.7517423532
  H         5.3648057004       -1.2746312114       32.6882923631
  C         4.7891620113        0.1532237510       33.9907827759
  H         4.4472485745        1.1301622798       20.0052546913
  H         5.3651671236        0.4233471786       18.9020596308
  C         4.0643701758        2.0294227058       18.2072342772
  H        12.2349741397        0.5599169293       21.9979323463
  H        12.6441384520        0.5000748376       20.2361759247
  C        13.8694662668        1.7646210334       21.4108139350
  N         9.8435587285        8.2422299739       17.6520534193
  C        10.4076685821        7.8869873391       15.4718753461
  C        10.5432055637        5.6585175028       14.4616428691
  H        10.3350930763        3.9333905024       15.5859462829
  H         0.2986733618        4.8896696781       30.7921438215
  H         1.7470851124        5.5469669323       31.6536260926
  H         0.5776410460        6.5941145994       30.8409348299
  S         4.5369490270        1.7226874313       34.6224809293
  C         4.6642250376       -0.9432204628       34.9346212664
  H         4.0205215250        2.9804949573       18.6091731780
  H         4.4921869727        1.9719549712       17.2226230449
  C         2.6156395957        1.5052969172       18.0615993770
  H        13.9325514490        2.6887903854       20.7702878315
  H        14.7251836906        1.1329769734       21.0345624268
  C        13.9821789496        2.1840413628       22.9242520771
  S        10.0357988805        9.7224895462       17.0159272357
  N        10.5763669645        9.2286024591       15.5484515380
  C        10.6989545904        7.1460127880       14.3193901144
  H        10.5638129078        5.0857383873       13.5755658101
  C         4.3430536692        0.8505977343       36.1721473698
  N         4.4218444243       -0.4871219253       36.1293417880
  O         4.5294174378       -2.1047645616       34.6296752147
  H         1.9708308518        2.2818624952       17.7371243567
  H         2.2376537833        1.1542045765       19.0630958927
  C         2.5495857451        0.3063966438       17.0940171037
  H        13.1844572804        2.9271787799       23.1146166194
  H        13.7535114374        1.3934393937       23.5505326996
  C        15.3596594536        2.8062541688       23.2360479294
  C        10.9381637917        7.8246046642       13.0765035677
  S         3.9942395937        1.6552451826       37.6565054139
  C         4.3057448909       -1.3731916806       37.3142103872
  H         2.4575631950        0.7540275466       16.0852235155
  H         3.4794547469       -0.1618874635       17.0820381535
  C         1.3392074439       -0.5851760359       17.4318112007
  H        15.2940286908        3.4031548695       24.1465167753
  H        15.6007080504        3.5257523430       22.5210935920
  C        16.5768179762        1.8181246091       23.2944092730
  H        10.6653008864        8.8263075470       13.1969077605
  C        11.5203421174        7.5422929151       11.9023659918
  H         3.5497983197       -1.0084732883       37.9290415672
  H         3.8820753881       -2.3642035075       37.0700274876
  C         5.6273926167       -1.5083124747       38.0970344893
  H         0.6704658455       -0.5669319150       16.5684361216
  H         0.6996172442       -0.2241581033       18.2365388769
  C         1.6966824545       -2.0320548532       17.8310542636
  H        16.8448544499        1.6866245469       24.4097607924
  H        16.2704713964        0.8461206240       22.9933435760
  C        17.8179802889        2.2620200564       22.4798036284
  S        12.4229865578        6.1596599649       11.5713044774
  C        11.5278061306        8.5953126748       10.9009759463
  H         5.4442333463       -0.9173834023       39.0173221145
  H         6.0061709219       -2.4976980850       38.2501676590
  H         6.4593407891       -1.0438234504       37.5351991585
  H         2.5436976657       -2.1320208487       18.4752954730
  H         1.9348268357       -2.5881888966       16.8971965190
  H         0.9011390564       -2.4796060188       18.4228677245
  H        17.8596402484        1.6231186365       21.5582354289
  H        18.7337381735        2.0996440279       23.0921956178
  H        17.8080672521        3.3231816314       22.2186993707
  C        12.7820682986        7.0530535594       10.0643124389
  N        12.1846200695        8.2122844980        9.8515244656
  O        10.8416631671        9.6126639756       10.9840556009
  S        13.5370345864        6.2669066732        8.6241661409
  C        12.2465919041        9.0022529770        8.6015461416
  H        12.5189858139       10.0460887524        8.8593352168
  H        12.9321874511        8.7327440774        7.8424539048
  C        10.7927559314        9.0299803769        7.9976767774
  H        10.1474395761        9.8167656759        8.3695233583
  H        10.8186512293        9.3510673555        6.9509698243
  H        10.3923778017        8.0397070106        8.1325224712
  H        21.5690704496        8.6688668344        3.3923348437
  C        22.2106532192        9.4393718671        3.1661701146
  H        22.9607797744        8.9242721083        2.5855246508
  C        22.9089608222        9.9633252612        4.4260329436
  C        21.6700826568       10.5806083660        2.3219124827
  C        21.8068204012       10.4334545882        5.5113216729
  H        23.4802790904        9.1207218836        4.8148265551
  H        23.5277808697       10.7788629684        4.0713241486
  H        20.9812829971       11.3219616210        2.8666067315
  H        21.1188661453       10.2250860599        1.4467698441
  H        22.4664730067       11.1498690403        1.8140147776
  C        21.0226479603        9.2927648261        6.1369052392
  H        22.2443735937       10.9124449487        6.3372793100
  H        21.1963496223       11.2203375379        5.0081237273
  C        20.4583733576        9.5936361580        7.5445063577
  H        21.7327994185        8.4219989828        6.2573115855
  H        20.2316912382        8.9113534075        5.4875572613
  C        19.1391052463       10.3664240440        7.4663696860
  H        21.2121012975       10.0813123318        8.2490449226
  H        20.3210990491        8.6721162602        8.0578879195
  C        17.9476245843        9.5361774070        7.0811612017
  H        19.0008831015       10.7983882258        8.4902953546
  H        19.2496839515       11.2452405006        6.8360145094
  C        16.5987765061       10.3766042474        6.8444496639
  H        17.6824848190        8.7684750722        7.7663498298
  H        18.3220011759        9.0481654194        6.1889636663
  C        16.9065081660       11.7482717580        6.2000240012
  C        16.2173138567       11.0905507184        8.0826182313
  C        15.4623058644        9.6746963956        6.1358397792
  C        16.6254793777       12.8191792884        6.9696672246
  C        17.2822769486       12.1243916281        4.8907563786
  C        16.1787718441       12.4092850463        8.1634427120
  C        15.8399077700       10.4897868226        9.2997943808
  H        15.7867981095        9.2047383720        5.2350236831
  H        15.0612593532        8.8175262889        6.7417927029
  C        14.3619732105       10.7195538814        5.6650454563
  S        16.9274581012       14.2864336192        6.2079418673
  C        17.4757850531       13.4819422841        4.7959175333
  H        17.4177517020       11.3729817670        4.1169196445
  C        15.7593965054       13.0179353735        9.3465438910
  H        15.8238134880        9.3892725278        9.2396966906
  C        15.3992202267       11.0455600135       10.4603204545
  H        14.6476872420       11.6440703270        5.1995537354
  H        13.8097837913       11.0947920445        6.5669825816
  C        13.3966871494       10.0631544208        4.6950365738
  C        17.9031710818       14.2046543876        3.5353897900
  C        15.4322730759       12.3821783876       10.5335369150
  H        15.8431931276       14.0682684791        9.4017365803
  C        15.0141417513       10.6297384414       11.7185341513
  H        12.4914098379       10.5685697487        4.7245820844
  H        13.2123103672        9.0295203444        5.0323181220
  C        13.9000622115       10.0434777382        3.2633664839
  C        17.9184100468       15.6551743175        3.2937565548
  C        18.5258451056       13.3410277900        2.4924403900
  C        15.0192193122       13.0366641414       11.8636075479
  C        14.7814938327       11.7349524038       12.5111434838
  S        14.7590973151        9.1210675141       12.5140740440
  H        14.6496740712        9.2764283781        3.2234593072
  H        14.4623441446       10.9406935908        3.0215447000
  C        12.7767609717        9.8284447180        2.1853132871
  N        17.5369797319       16.5909755031        4.3042523375
  C        18.2583658724       16.2345074549        2.1125354966
  C        18.8317436351       13.9679652125        1.2706345642
  H        18.6542721368       12.3121891551        2.6225241203
  C        13.7654742187       13.9211264784       11.8264930756
  C        16.2142616200       13.8376578068       12.3785623138
  C        14.3557686722       11.3851785320       13.8595660517
  C        14.2632434205        9.9967300794       13.9451651896
  H        11.8863867678        9.5357757528        2.6372791241
  H        12.4743356339       10.7544367943        1.7056867659
  C        13.1353665214        8.8155557715        1.1210601229
  S        17.6073586989       18.0478969132        3.6137633427
  N        18.2809072643       17.6781280352        2.1628014236
  C        18.6604617446       15.4279231359        1.0394320141
  H        19.2257363592       13.5034804607        0.3910798584
  H        13.9857387184       14.7974725688       11.1466926802
  H        13.3640386168       14.3196599989       12.7579816438
  C        12.5092565157       13.1138581220       11.2596311235
  H        16.6172790679       14.4714738629       11.5666527854
  H        15.7961115619       14.4506874622       13.0906115665
  C        17.2784295170       13.0041159002       13.1156869512
  H        14.3671045065       12.1531906035       14.6048981979
  C        13.8970681565        9.2138363449       15.1722883676
  H        12.2840638138        8.1974888775        0.7673449449
  H        13.8381780651        8.1665446537        1.4445516911
  C        13.6837680697        9.5878856388       -0.1083631503
  C        18.8754092403       16.0846802950       -0.1865551567
  H        12.6496393260       12.8773637805       10.2324957147
  H        12.3249599492       12.2196405535       11.8063578340
  C        11.1951632419       13.9345535314       11.2912693966
  H        17.6927674578       12.1799246667       12.5150348169
  H        16.8486290278       12.4950869960       13.9778799380
  C        18.3065993439       14.0593783650       13.5433053071
  C        13.8516128872        7.7386343475       15.2855821530
  C        13.5892345379        9.9468876488       16.3890906201
  H        14.2175882621       10.4348384668        0.2399163162
  H        14.5042030927        9.0328317480       -0.6784897417
  C        12.7153007516       10.0876613688       -1.1404641318
  H        18.7004580597       17.1363035629       -0.1060087860
  C        19.1618889129       15.7391540059       -1.4955247579
  H        11.3952087800       14.7112486199       10.5810864586
  H        11.0874283503       14.3920882789       12.3155478499
  C         9.9292974340       13.2187077212       10.7894566782
  H        18.2640570055       14.8040732750       12.7496734181
  H        17.9904340981       14.5056230410       14.5018715941
  C        19.6887642889       13.3879165571       13.6460186494
  N        14.1526931731        6.8674822935       14.2625912408
  C        13.4913320425        7.1645377703       16.5029941475
  C        13.2170672797        9.2675181404       17.6128304109
  H        13.3955234100       10.9799508735       16.3814446435
  H        12.9739638589       11.0218775698       -1.5559254110
  H        11.7100026900       10.2133190289       -0.6325769876
  H        12.5741910843        9.3372907524       -1.9399189505
  S        19.6074680692       14.1904329047       -2.0114562876
  C        19.2009694448       16.8134070590       -2.5186110165
  H        10.0787289742       12.1605278357       10.7872676228
  H         9.1341785601       13.4642757882       11.4874316891
  C         9.3215150018       13.6220977779        9.4609735684
  H        19.9172650632       12.4891550784       13.0740214417
  H        19.8198478767       13.0718775235       14.6379704758
  C        20.7800957166       14.3483524185       13.3170610097
  S        14.1564428334        5.3969861945       14.9624195056
  N        13.5265251816        5.7934480891       16.3731481669
  C        13.2094554366        7.8340634577       17.6910113722
  H        12.8145596377        9.8620272349       18.4127658522
  C        19.7490912470       14.8713129683       -3.6102782717
  N        19.4990119604       16.2343884107       -3.6637232451
  O        19.0200993864       18.0026518800       -2.3202888477
  H         8.9858052236       14.6815477018        9.4919495476
  H        10.0382556869       13.5553674439        8.6345755027
  C         8.0668128167       12.7536583003        9.0152636476
  H        21.5401127024       13.7364382259       12.7727535716
  H        20.4231317112       15.0859375914       12.6091699261
  C        21.4847827528       14.9971504915       14.4990017825
  C        12.8661410862        7.1330531052       18.8636538803
  S        20.3648912801       14.1029349371       -5.0614020618
  C        19.6114928723       17.0317536527       -4.9446547123
  H         8.3962949886       12.1291891628        8.2662934691
  H         7.7351969891       12.1774665771        9.9149186765
  C         6.9415481694       13.5878411454        8.4908793075
  H        22.1488816743       14.3128222711       14.9876656573
  H        20.7354415122       15.2131911553       15.2942782480
  C        22.2895476127       16.1801644868       14.0629763858
  H        13.3166668775        6.1496234989       18.9224902207
  C        12.2866531667        7.4696709916       20.0731612868
  H        19.9491411498       16.4674179250       -5.8067173987
  H        20.2685064289       17.8513869758       -4.6772059729
  C        18.2913455726       17.5978753041       -5.4330302193
  H         6.5193173018       13.0454744529        7.6853724572
  H         7.2852733912       14.4315556484        7.9394147731
  C         5.8207095572       13.8041766726        9.5423533602
  H        22.9413937661       16.4423259298       14.9115884469
  H        22.8034004481       15.8844649974       13.1934379387
  C        21.4262702635       17.4472628772       13.7436682373
  S        11.8055078938        8.9693201495       20.5885775810
  C        12.1929956599        6.3533133200       21.0723703707
  H        17.5208810316       17.1606808815       -4.7662938060
  H        18.0958924887       17.3512236071       -6.4546439484
  H        18.2316992158       18.6710099518       -5.3894001491
  H         5.6149826487       13.0151571655       10.1725360401
  H         6.1476071412       14.6033269007       10.2344580596
  H         4.9651839884       14.2011126249        9.0261462191
  H        22.0615142698       18.2832283861       13.8859535968
  H        20.9665458604       17.4344620687       12.7529425163
  H        20.5161926673       17.5613607348       14.3390211445
  C        11.4263292820        8.2013324770       22.1845741835
  N        11.4998597056        6.8409234897       22.1924327949
  O        12.5624253681        5.1727256787       20.9812551391
  S        10.8628924038        9.0217627169       23.6009829309
  C        11.4520296042        6.0251625359       23.3549296588
  H        11.1585545319        5.0055243399       23.1946544706
  H        10.6641011279        6.4803107229       24.0121815654
  C        12.7250785351        5.9412931071       24.0732089450
  H        12.4470333467        5.4042215994       24.9311208953
  H        13.0973336777        6.9550853085       24.2556552824
  H        13.5362764138        5.3328257585       23.6053149126
