352
 i =    95600, time =    95600.000, E =        25.2566629234
  H        10.4271331811        4.3650783639       31.6506494206
  C        10.5369078261        5.2716041730       32.2462397927
  H         9.6386317777        5.4008854483       32.7985383556
  C        10.6391225650        6.4629156598       31.3704260329
  C        11.6551067000        5.0288516451       33.2285946812
  C        11.1942011586        6.1803435310       29.9510475630
  H         9.6398551483        6.9856798328       31.3578998096
  H        11.3498270760        7.1481847085       31.7896181693
  H        12.6753605616        4.7610875289       32.7761965301
  H        11.7124694518        5.9613963526       33.7626534665
  H        11.5435424564        4.1640239960       33.9235257780
  C        10.1235848807        5.9574480707       28.9204768909
  H        11.8310602357        5.3069633888       29.8673262576
  H        11.8696313744        6.9038832811       29.5807286709
  C        10.6854456854        5.9374914671       27.4318690149
  H         9.6144992379        5.0516751088       29.1518241610
  H         9.2364548774        6.6191135802       28.9312027695
  C         9.7600332674        5.1500472779       26.5074428254
  H        11.6174338587        5.4102035414       27.3525105417
  H        10.8853453252        6.9796999811       27.1225688109
  C         8.5401592129        6.1075389534       26.1910324241
  H        10.2254635109        4.9650768184       25.5136192438
  H         9.5679807345        4.0490996865       26.8426325122
  C         7.5088647098        5.3893283903       25.3396613113
  H         8.1371064624        6.4677493021       27.1297815503
  H         8.9048337366        6.9627083621       25.5860649991
  C         7.0886449437        4.0221580010       25.9539401299
  C         8.1165559718        4.5612463949       24.1946020928
  C         6.3754189549        6.3698821341       24.7676288044
  C         7.5725140666        2.8942284487       25.2609733824
  C         6.4534412256        3.6198904335       27.1251047848
  C         8.1119696942        3.2353063070       24.0582851093
  C         8.5464190028        5.2546155264       23.0962451641
  H         5.8505474702        5.9555106449       23.9780642552
  H         6.8656844887        7.3010253841       24.3384841088
  C         5.4898208237        6.8924684686       25.8767724514
  S         7.2066045883        1.4185196330       26.0097722837
  C         6.5448241594        2.2637602557       27.2995702946
  H         6.0687281013        4.3488453470       27.7998166546
  C         8.5530693444        2.6608713019       22.8705475250
  H         8.5904393229        6.3610125617       23.2869940487
  C         8.9999593651        4.7143848041       21.9243466611
  H         5.8197639515        6.3471586551       26.8233942616
  H         5.6529688482        7.9438493564       26.1465877195
  C         3.9888435246        6.6915227582       25.6107323554
  C         6.0375417706        1.5268003192       28.5495516615
  C         9.0133853962        3.3836835493       21.7789095507
  H         8.4715137570        1.6048564394       22.6519735546
  C         9.3480732859        5.1591524579       20.6358066389
  H         3.7392050901        5.7473141808       25.1946980941
  H         3.6890826186        7.3215588956       24.7903726100
  C         3.2187460499        6.7961927087       26.8921419438
  C         6.1667837136        0.1732834428       28.8177456107
  C         5.6218102017        2.3598715763       29.7234355057
  C         9.4137538279        2.6694228196       20.5349853299
  C         9.6479891629        4.0896824777       19.8367629522
  S         9.4754267265        6.6985289248       19.7629264231
  H         2.5771702136        7.6370576840       26.6922416491
  H         3.8656706379        7.1295657918       27.6661292133
  C         2.4001199294        5.4923464744       27.1742270395
  N         6.4455397073       -0.8455513741       27.8736246800
  C         5.8798271876       -0.4007834893       30.0602235993
  C         5.4288009132        1.8501398483       31.0010707625
  H         5.3940454209        3.4062870398       29.6319314286
  C         8.1916075135        1.8864075333       19.8804496398
  C        10.7110646320        1.7977551173       20.5628745887
  C         9.8870248210        4.4970989774       18.5312405849
  C         9.7707154845        5.8699354309       18.2775084218
  H         1.7487773103        5.2085884755       26.3507380155
  H         3.1249847297        4.6113513762       27.1218479526
  C         1.6425511461        5.3453591684       28.4920926549
  S         6.4925575388       -2.2732477539       28.6012696639
  N         6.0930851106       -1.7804227808       30.0595616725
  C         5.4766572897        0.3666626218       31.1660509865
  H         5.0251074190        2.5241304305       31.7725402005
  H         8.1776526081        0.9982282114       20.4632141744
  H         8.4514730198        1.5133806245       18.8842214416
  C         6.9138601185        2.6599571242       19.6516424544
  H        10.7846692263        1.3602209691       19.5160637357
  H        10.6465362456        0.9219738803       21.1561307583
  C        11.9718523220        2.6282474858       20.9737702180
  H        10.0688626873        3.7242551870       17.7718963277
  C        10.1318920284        6.6350669185       17.0003846511
  H         1.0860728499        4.3863981969       28.5584067557
  H         0.7576483593        6.0652995167       28.3184849827
  C         2.4386061645        5.6411524911       29.7421087943
  C         5.3913836566       -0.2683122910       32.4222962875
  H         7.2260814089        3.4097769305       18.8693557846
  H         6.6916534623        3.0653382731       20.5760702396
  C         5.8851919579        1.6122825420       19.1071288607
  H        11.7719937121        3.3305469225       21.7306187961
  H        12.3012758626        3.3579002647       20.2648096396
  C        13.1683954080        1.7980614545       21.4436192815
  C        10.2440906059        8.0371886196       16.8043484773
  C        10.5000462578        5.7875658454       15.8775127075
  H         3.4042139284        5.0661612515       29.6294286283
  H         2.7822510012        6.6886316037       29.6910966930
  C         1.6519313888        5.5206818933       31.0977428444
  H         5.5001601752       -1.3190196450       32.3032207078
  C         5.1266869197        0.1600647001       33.7406416551
  H         5.5539200831        0.8513207019       19.7766491819
  H         6.3637232572        1.0628052790       18.3080188966
  C         4.6178843639        2.3462997638       18.6508775220
  H        12.7635056845        1.1025948625       22.2619590209
  H        13.6087108287        1.2046764998       20.6162226506
  C        14.2292827777        2.7155316821       22.0339046796
  N         9.9380036062        9.0777961565       17.6622539858
  C        10.5813467022        8.6070827750       15.5786153587
  C        10.9555816825        6.2988283374       14.6558740691
  H        10.5104446979        4.7302545211       16.0752167580
  H         1.0288530185        4.7417100517       31.2284654226
  H         2.4235399262        5.5234394181       31.9005195507
  H         1.0705098807        6.4790925762       31.2418471305
  S         4.5952843517        1.6925182620       34.1265871895
  C         5.0754629648       -0.8596157823       34.8248294179
  H         4.4965721976        3.2786741631       19.2419532373
  H         4.7474329378        2.7257239596       17.6054540972
  C         3.3108564377        1.5190588749       18.7057336898
  H        13.7300822474        3.5984849109       22.4467391030
  H        14.8847455757        3.1077988913       21.2727685284
  C        15.0988044035        2.0236502332       23.0617716560
  S        10.0256431308       10.5326452988       16.9482411637
  N        10.6513229172        9.9976749921       15.5366593885
  C        10.8181776228        7.7999856566       14.4208314330
  H        11.3919743792        5.5429982232       13.9239165169
  C         4.3974271551        1.0260826028       35.8225476716
  N         4.7596511798       -0.2500989787       36.0254054457
  O         5.3223553506       -2.0957409640       34.7649751284
  H         2.4968944922        2.2054979312       18.7021973374
  H         3.2946876760        0.9445009141       19.6682999699
  C         3.3308178729        0.4734216750       17.5524885946
  H        14.4727166106        1.4213394752       23.7506727455
  H        15.6649947657        1.2063484754       22.6339210550
  C        16.0881956634        2.9041144431       23.7673295704
  C        11.2004853738        8.4923643446       13.2534036375
  S         3.7526792748        1.9789357099       37.1643046130
  C         4.7846144033       -1.0559689794       37.2864735648
  H         3.1461474353        0.9967824320       16.6655439164
  H         4.3725299340        0.0938171856       17.3523207423
  C         2.2758670668       -0.6041543152       17.7276362132
  H        15.6239726866        3.4613257125       24.5836355848
  H        16.3212692282        3.6824511429       23.0565575518
  C        17.2841320939        2.1471591725       24.3210905333
  H        11.0329299496        9.5509577949       13.2629241674
  C        11.6127439039        8.0184580071       11.9840629616
  H         4.2066770441       -0.7054912397       38.0720102537
  H         4.4480973925       -2.0319102376       37.0707366953
  C         6.2393744946       -1.2327996619       37.7867514102
  H         1.6066695181       -0.6720551282       16.8910067519
  H         1.5588763854       -0.3583069587       18.6249954782
  C         2.8085290004       -2.0093791702       18.1707252281
  H        17.5072922216        2.6153021328       25.2529607061
  H        17.0745151660        1.0632676006       24.6007397063
  C        18.4439181022        2.2531698013       23.3792272571
  S        12.0643397996        6.4207149619       11.5923672497
  C        11.7475889964        9.0731833715       11.0150507934
  H         6.9920467673       -1.4577612776       37.0300714942
  H         6.5559175634       -0.3211019991       38.2684634768
  H         6.2171221110       -1.9765273053       38.6319210318
  H         2.0715691586       -2.5612529285       18.7697083303
  H         3.6113897957       -2.0497154269       18.9198186496
  H         3.1455311495       -2.5303865647       17.2334472686
  H        19.2470522201        1.6833294675       23.8494271221
  H        18.7107725871        3.2524437997       23.1891917664
  H        18.2943817221        1.6482797982       22.5094743802
  C        12.3911244706        7.1327766169        9.9397395429
  N        12.3747908227        8.5114064598       10.0117914703
  O        11.5690170799       10.2537198355       11.2207331501
  S        13.0189210308        6.2797616775        8.4943618412
  C        12.7766306777        9.3974090934        8.8903543271
  H        13.1066641769       10.2850646530        9.3295398437
  H        13.6325818843        9.0806669461        8.2266471161
  C        11.6115834435        9.5116048125        7.9075496318
  H        11.9155094334        9.7404858173        6.8963737742
  H        11.1207437699        8.5520888863        7.7315909562
  H        10.8833970720       10.2184285508        8.2461828560
  H        22.2043813097       11.2051730627        3.4106122882
  C        22.9380971210       10.3792904017        3.4844148199
  H        22.2680793569        9.5914347661        3.2182056085
  C        23.2660458207       10.3505656020        5.0022066237
  C        24.1196586201       10.6599602505        2.5598375361
  C        22.0303897185       10.0581824454        5.8865660392
  H        23.9424249609        9.4873885964        5.1634406762
  H        23.7328217457       11.2600107962        5.2988195462
  H        24.7063446127        9.7498915869        2.4900971602
  H        24.6477929884       11.5132406035        2.8770869939
  H        23.7561186009       10.8872772268        1.6452021681
  C        21.4522679212        8.6260750415        5.8106300732
  H        22.2308407107       10.4483825088        6.8624860328
  H        21.2023350097       10.7445816210        5.6436684431
  C        20.4306077644        8.4079911206        6.8714576349
  H        22.2465905770        7.9636647186        6.0239746355
  H        21.0679293157        8.3840014527        4.8106726146
  C        19.0616537729        8.8537500409        6.4558654108
  H        20.7512040027        8.8178852517        7.8521155275
  H        20.3266402029        7.2844690795        7.0176215657
  C        18.1796623841        9.5621642878        7.5950051773
  H        19.2047321121        9.5743220679        5.5882372055
  H        18.4569837622        8.0257128922        6.1037264096
  C        17.0605219824       10.4743254347        7.0942132162
  H        18.7959216843       10.2265057289        8.2069816019
  H        17.6703846345        8.6970951049        8.1552998058
  C        17.6061022368       11.7038490775        6.3138854271
  C        16.6484014518       11.2414102622        8.2811448442
  C        15.8722631051        9.8382463927        6.2536716801
  C        17.4253353099       12.8073971911        7.1350514186
  C        18.2018442256       12.1222794745        5.1235553018
  C        16.8349929776       12.5446130215        8.3951148658
  C        16.0130750000       10.6959939075        9.3836720221
  H        16.3891331048        9.4723640031        5.3850669476
  H        15.5302645113        9.0304954276        6.8365105421
  C        14.7910210861       10.8425639822        5.8232218953
  S        17.7563569114       14.2804550052        6.3727214340
  C        18.2602146097       13.4648058440        4.9213470063
  H        18.2518182374       11.4190969649        4.3089143605
  C        16.5820341778       13.2517955172        9.5245666032
  H        15.9723779350        9.6670105075        9.3861853863
  C        15.7604465427       11.3717510828       10.5401931315
  H        15.2297706323       11.6706537796        5.4269135663
  H        14.1614524788       10.9559961513        6.6966343992
  C        13.9067983599       10.1288162839        4.7605704747
  C        18.6380835475       14.1914821961        3.6295633537
  C        16.0142917799       12.6791447537       10.6708846227
  H        16.8358288303       14.3086085468        9.4262638516
  C        15.3186508240       11.0292516681       11.8056860576
  H        12.8456062837       10.5052758521        4.8795516202
  H        13.8555409524        9.0733458184        4.9216202637
  C        14.3587345240       10.4572994042        3.2876265593
  C        18.6603049896       15.5934987504        3.4419678109
  C        19.0720581580       13.3839101128        2.4423562239
  C        15.6136543969       13.5122957666       11.9025238523
  C        15.1918688864       12.1763074946       12.6029206702
  S        14.8676719181        9.6020883327       12.6532707845
  H        15.3424562440        9.9779812801        3.0995900027
  H        14.4373523583       11.5314639867        3.1661908810
  C        13.4026441124        9.9071739978        2.2112529673
  N        18.3369739926       16.5170937215        4.4235377475
  C        18.8668232037       16.2566619831        2.2095850770
  C        19.3309002437       13.9902805826        1.2109610218
  H        19.2083307110       12.2820001006        2.4853071151
  C        14.4940249185       14.4351023012       11.4196394592
  C        16.8195653660       14.2934944934       12.5271655484
  C        14.8005382579       11.7618845504       13.9126344872
  C        14.5871582743       10.4074592393       14.0642039113
  H        12.6336830201        9.2822290020        2.6191495511
  H        12.8217919388       10.7374748070        1.9098838005
  C        14.1093661947        9.3749061041        1.0280078604
  S        18.1917633018       18.0357385028        3.8780126997
  N        18.7543534571       17.6929138717        2.3832836506
  C        19.2434881977       15.4678835796        1.0539044310
  H        19.7451089470       13.3233297539        0.4240384999
  H        14.8308200218       15.0108156376       10.5637266257
  H        14.2460852515       15.0640386450       12.2634265235
  C        13.1681355831       13.7290006248       11.0666311048
  H        16.9736018769       15.2100516974       11.9627447407
  H        16.7623762107       14.6086139073       13.5754745424
  C        18.1500469681       13.5677261323       12.4473287558
  H        14.7472263278       12.5501242625       14.7104415653
  C        14.2105242070        9.6744037308       15.3080816323
  H        14.7943800197        8.6139522634        1.4353497273
  H        14.8295431585       10.0959106216        0.6131716950
  C        13.2655750978        8.8094189023       -0.0642058301
  C        19.4566180992       16.1996706717       -0.1426331636
  H        13.4231604296       13.2245897530       10.1601672098
  H        12.7411494453       12.9347913654       11.7186614319
  C        12.1646396989       14.6683524013       10.5489141076
  H        18.8474680217       14.0194057541       11.7385097819
  H        18.0674329228       12.5144812025       12.0814132597
  C        19.0832278403       13.5477648280       13.7298342720
  C        14.0673597364        8.2836007497       15.5431366097
  C        14.0820886096       10.4947554655       16.5167840180
  H        13.8626250314        8.4983894457       -0.9391665307
  H        12.9315967430        7.8868130851        0.3872478691
  C        12.1162975625        9.8064369419       -0.5242082219
  H        19.5035872293       17.2742086144       -0.0015387725
  C        19.6604195686       15.7961082078       -1.4684656637
  H        12.5956148943       15.3263993490        9.8544391555
  H        11.8065193611       15.2778579995       11.3736958141
  C        10.9962926897       13.9673934852        9.8192212182
  H        18.3941113291       13.6694224322       14.6103313252
  H        19.7339305660       12.6846675449       13.7497115650
  C        19.9367936425       14.8232597898       13.7691548540
  N        14.2845295258        7.3555363203       14.4937145739
  C        13.7696755024        7.6947238193       16.7777936118
  C        13.7109551277        9.8931205023       17.7306044295
  H        14.4290789455       11.5244717933       16.5061643532
  H        11.2578943611        9.7057788083        0.0756810088
  H        11.8834262983        9.7235311834       -1.5599392301
  H        12.5553872935       10.8256339118       -0.3626846085
  S        19.8274795376       14.1724852519       -1.9802558904
  C        19.7733347811       16.8645217280       -2.5040018108
  H        10.5161260168       14.6788517736        9.1720347366
  H        11.2909573991       13.1379215544        9.2224698720
  C         9.9408195653       13.5423631386       10.8166651034
  H        19.3167936483       15.6279554789       13.4722157170
  H        20.6471004412       14.7319193684       12.9910918785
  C        20.5409685357       15.0975392140       15.1394172839
  S        14.0640943770        5.8497348522       15.2186796205
  N        13.6108626215        6.2813597064       16.7538084413
  C        13.5237709696        8.4252418031       17.9134128596
  H        13.5966553616       10.5998608123       18.5744422595
  C        20.1590935996       14.9618250318       -3.5952516492
  N        20.1784306181       16.2759926519       -3.6317392542
  O        19.6752305844       18.0773274236       -2.2555774635
  H         9.8778186363       12.4384964257       10.6877985760
  H        10.3027835486       13.6798270903       11.7771382789
  C         8.4987694006       13.9541600898       10.6015339605
  H        19.7605833536       15.5666603555       15.7665097667
  H        21.0370205373       14.2136770301       15.5538816924
  C        21.7309961925       16.1258033011       14.9782107121
  C        13.1706545740        7.6973515515       19.0950814770
  S        20.2526994691       13.9969185011       -5.0735627279
  C        20.2925151352       17.0326219300       -4.8340163560
  H         7.9745381370       13.8616873265       11.5747248320
  H         8.5038570895       14.9932082066       10.5149411620
  C         7.6667662050       13.3186507869        9.5094212541
  H        22.4638287756       15.6330243169       14.3582782982
  H        22.1490394529       16.3546106357       15.9510270235
  C        21.4353446115       17.4204717016       14.2559851581
  H        13.2863238593        6.6408356686       19.1148326933
  C        12.5238714026        8.0745411657       20.1902661735
  H        20.9171193398       16.5866923675       -5.6485360844
  H        20.6970892149       17.9703497637       -4.6860605611
  C        18.9235376886       17.2950037343       -5.3938264664
  H         7.8947165152       12.2133209184        9.5385988695
  H         7.9947785082       13.6861822279        8.4943162338
  C         6.1607988494       13.5795500847        9.6752627990
  H        22.3954511408       17.9629439056       14.0561429355
  H        20.9752481958       17.2051312699       13.2796301119
  C        20.4568538293       18.2484714496       15.0477130350
  S        12.0081182519        9.7377968233       20.5936600552
  C        12.3368670388        7.1221324428       21.3484674087
  H        18.6232271424       16.5376529379       -6.0891961292
  H        18.9454769964       18.2256122233       -6.0149487223
  H        18.1062876038       17.3288897709       -4.6447203251
  H         5.7291480231       13.3172217902        8.6770779970
  H         5.7293930070       12.9664188042       10.4586574105
  H         5.9325476122       14.6083299386        9.9925467392
  H        20.8791892306       19.2380952725       15.3149069496
  H        19.5027235658       18.4495242168       14.5844655974
  H        20.1952469800       17.7721049416       15.9944443891
  C        11.7311532187        9.1896431874       22.2316525525
  N        11.9766601085        7.8424029735       22.4258149297
  O        12.7591219768        5.9743062485       21.2887564008
  S        11.0466405805       10.0552884614       23.6143547158
  C        11.8200688979        7.1349539048       23.7160094041
  H        11.3107259838        6.1959814779       23.5507081223
  H        11.2327430148        7.4850258555       24.5151494347
  C        13.1220394187        6.6115595979       24.3525906607
  H        13.2302140359        5.5463864580       24.2533983576
  H        13.0913001264        6.7686725036       25.4516584917
  H        14.0207249314        7.0145071573       23.9154370000
