352
 i =    49800, time =    49800.000, E =        25.4152219152
  H        10.3333854413        7.1944504860       32.7548164237
  C        11.1660853751        6.5803757208       32.5044713907
  H        11.9872286806        7.2944123073       32.3778691980
  C        10.8854624343        5.6868075973       31.3000503892
  C        11.2404699880        5.8365289463       33.8832608627
  C        10.5659307097        6.3900877172       29.9765232760
  H        11.8604392932        5.2581895878       31.0800306222
  H        10.2467736371        4.8620000544       31.5661324716
  H        11.3484280231        6.4268161783       34.8275184532
  H        10.4242708147        5.0867950679       34.1303054110
  H        12.2119483001        5.3387085736       33.8411334416
  C        10.1607644620        5.3950472674       28.8568143336
  H        11.4307963674        6.9199082813       29.4835115935
  H         9.9041722315        7.2374569888       30.0994252764
  C        10.6905570889        5.7915044256       27.4813288846
  H        10.5380361903        4.3436024800       29.0658170684
  H         9.0684880318        5.3813354085       28.7320102634
  C         9.8485662232        5.1270858968       26.4495810825
  H        11.7331195630        5.4525602477       27.4775544361
  H        10.6974641759        6.9425959095       27.3242492519
  C         8.6568217643        5.9835702514       26.0150894585
  H        10.3981457697        4.9666245824       25.5497604973
  H         9.6708725347        4.1076865203       26.7516056184
  C         7.4816249516        5.2279309266       25.3291280934
  H         8.3458653850        6.3807479060       26.9688508131
  H         8.9623143103        6.8696494422       25.4645715859
  C         7.2425764560        3.9242178273       26.1118256179
  C         7.9236838594        4.3889875872       24.2017867010
  C         6.2014997141        6.0999414302       25.1125277936
  C         7.4720624147        2.7458676648       25.3741286752
  C         6.5324361687        3.5883963218       27.2946186212
  C         7.9604671030        3.0743934042       24.1597804925
  C         8.3791418223        5.1397295401       23.1017527975
  H         6.3460389219        6.8374383740       24.3362579428
  H         5.9766174042        6.5923785320       26.0738738271
  C         5.0377291329        5.3719798741       24.4779330517
  S         7.0114271481        1.2226378393       26.2051155256
  C         6.4210552387        2.2490750360       27.4787987141
  H         6.1634854106        4.4079839880       27.8678986549
  C         8.2857122035        2.5152075972       22.9558252213
  H         8.4155414427        6.2506037809       23.0921362157
  C         8.8343306117        4.5571766886       21.9395529930
  H         5.3513676031        4.9745845446       23.4995980819
  H         4.8062734595        4.4398165363       24.9915342846
  C         3.8244018565        6.2679757793       24.4633830958
  C         5.8555463622        1.5503338697       28.6267041453
  C         8.7594638264        3.2117415570       21.8602371992
  H         8.1624039943        1.4359393984       22.9101107420
  C         9.2858732937        4.9802097546       20.7410094483
  H         3.1344429756        5.9620759548       23.6518600098
  H         4.1576998660        7.2688515103       24.1992797145
  C         3.0467915627        6.3811097646       25.7900141519
  C         5.8607423102        0.1723015273       28.9024101370
  C         5.4109730940        2.3441481700       29.7954281358
  C         9.2227878212        2.5205462870       20.6288187450
  C         9.5050371954        3.8935574802       19.8650095224
  S         9.5686305183        6.5100847060       19.9355937096
  H         2.3697032461        7.2805723229       25.7458804612
  H         3.7754000503        6.3308794910       26.6303067543
  C         2.2011230214        5.0816394387       26.0378477346
  N         6.1471438782       -0.8563659456       27.9826170224
  C         5.6592862139       -0.4023487357       30.1343436642
  C         5.1470570277        1.8396320200       31.0724742815
  H         5.3503985085        3.4048740808       29.6542276761
  C         8.1107704388        1.7071532091       19.9227442961
  C        10.5077496724        1.7001912757       20.9884543036
  C         9.9300985930        4.2800180013       18.5658045153
  C         9.8378191737        5.6509682875       18.4226242800
  H         1.6541096825        4.8156215336       25.0277639615
  H         2.8806817598        4.2639514273       26.3899972745
  C         1.2683360354        5.3712983739       27.2038966628
  S         6.0982162393       -2.3434080590       28.6836534233
  N         5.7461898313       -1.8095638451       30.1340928179
  C         5.3145833809        0.3767854077       31.3103429923
  H         4.8717996438        2.5593137408       31.7961342130
  H         7.6954413518        1.0708075486       20.5870795903
  H         8.5652126136        1.1506039408       19.0803704373
  C         6.9288385874        2.6209209391       19.3995816931
  H        10.6950874495        0.8292931535       20.2607216340
  H        10.3602981086        0.9971839319       21.8716703806
  C        11.7649522249        2.5683196690       21.1176705116
  H        10.2908359473        3.5376200492       17.8357971359
  C        10.0004837025        6.4118392388       17.1702614232
  H         0.5047883325        4.6328154561       27.0718131497
  H         0.6106996165        6.2477510530       27.0820129832
  C         1.8894426575        5.4096965363       28.5747853350
  C         5.0856576346       -0.2614724087       32.5507247199
  H         7.2665793544        3.2666280836       18.6186443538
  H         6.4046617568        3.3110848957       20.1618895742
  C         5.9271308698        1.7011363902       18.6680068438
  H        11.6092665619        3.4588131895       21.7414669324
  H        11.9232346448        3.0038295368       20.1303019525
  C        12.9615657903        1.7465106012       21.6595489045
  C        10.0250847962        7.7964702321       16.9280504629
  C        10.2266786245        5.5984665641       15.9018129178
  H         2.4791007024        4.4754207319       28.7416175545
  H         2.5424316566        6.2815338677       28.6058437266
  C         0.9031836769        5.4876009705       29.6910857168
  H         5.3107174219       -1.2942419036       32.4713237170
  C         4.7214133627        0.1815260123       33.7994800238
  H         5.5716310269        0.9518506558       19.4572475036
  H         6.4691541365        1.0624293618       17.9359016010
  C         4.7711023273        2.3983143276       18.0159321064
  H        12.7579685732        1.6180521935       22.6855588909
  H        13.1792466734        0.7896905484       21.2485956029
  C        14.1957127309        2.6272429002       21.4334080051
  N         9.9759522764        8.7487227349       17.9805729428
  C        10.2970172686        8.4062447220       15.6755816150
  C        10.5434456926        6.2141095984       14.6326742840
  H        10.1108308868        4.5461749963       15.9568571429
  H        -0.1222146267        5.1708486311       29.3995864302
  H         1.2574160156        4.9264913948       30.5374167733
  H         0.8297635135        6.4927337418       29.9886976102
  S         4.3504015022        1.7794585490       34.2674159751
  C         4.7585787689       -0.8241511488       34.8701647385
  H         4.6824533971        3.3240411243       18.6285355121
  H         5.0575951870        2.7967709014       17.0362872363
  C         3.4187673777        1.6879248939       17.8061686365
  H        13.8786462743        3.5266963203       20.8396007949
  H        14.9490284561        2.1016734427       20.7663727168
  C        14.8478586070        2.9843128924       22.7737829988
  S         9.9364100746       10.2087388474       17.3080521337
  N        10.3275838300        9.7945948459       15.7897041510
  C        10.6951970243        7.7240248798       14.5705921742
  H        10.6552057392        5.5965949221       13.7611591660
  C         4.2089676510        1.1775309936       35.8740153479
  N         4.3693906827       -0.1809523223       35.9781060096
  O         5.0598092145       -2.0121495182       34.7473427818
  H         2.8741643602        2.1308194815       16.9148362958
  H         2.7843727420        1.6734855254       18.6285917384
  C         3.6094814477        0.2106944018       17.5139992242
  H        15.6618152007        3.7373950177       22.6178462022
  H        14.1121725312        3.4499448194       23.3785439221
  C        15.4465489192        1.7588091714       23.4228507903
  C        11.0112458605        8.5295802029       13.4616522205
  S         3.4364964923        2.1024503943       37.1934491300
  C         4.3179158367       -0.9675833414       37.1423334311
  H         4.4123596005        0.1773692762       16.8001259554
  H         4.0270328936       -0.2597862093       18.3800323841
  C         2.4083400810       -0.5611456555       17.0628478669
  H        15.4645182812        0.7971346501       22.8931860575
  H        14.7234975434        1.4205456335       24.2035612384
  C        16.8288851579        2.2030383650       23.9680176191
  H        10.7167981162        9.5237101011       13.4841440037
  C        11.2998037523        8.1570552020       12.1419709475
  H         3.5489227982       -0.6127758769       37.8452322182
  H         3.8680200578       -1.9740104401       36.8249594038
  C         5.6591912280       -1.1038426444       37.8227340678
  H         2.6205825512       -1.2767371807       16.2476874107
  H         1.6284904426        0.1453295035       16.8028873702
  C         1.9275880132       -1.3214589564       18.3029053099
  H        16.7666006058        3.0810266785       24.5609048330
  H        17.1029393697        1.4560602943       24.6479971156
  C        17.9277284034        2.3420458169       22.9657869996
  S        11.7433143360        6.5777067263       11.5109717461
  C        11.4665464558        9.2937286437       11.2110042351
  H         6.1309765817       -0.1581172133       37.8230373428
  H         5.5403233997       -1.4060623364       38.7934973938
  H         6.3448029448       -1.7850494769       37.2897008697
  H         1.7433603479       -0.7263492558       19.1879205545
  H         2.6765131919       -2.0383943364       18.6022956103
  H         0.9688927914       -1.7629665646       18.1637727900
  H        17.7163118058        1.5678440906       22.2163749952
  H        18.9579290507        2.0641149644       23.3984919142
  H        18.0306987273        3.3442499426       22.5747680731
  C        12.1982136288        7.4722158836       10.0345868555
  N        11.9996359528        8.8358286238       10.0783163313
  O        11.2629783176       10.4611232000       11.5269260121
  S        12.8130244593        6.6288101499        8.6247031935
  C        12.2966015293        9.8054066821        8.9719671964
  H        12.6884502329       10.7661938661        9.4050720819
  H        13.0299490431        9.4269300922        8.3295499189
  C        11.0834191244       10.0161321235        8.0846848535
  H        10.2887628956        9.2929223415        8.2654758478
  H        10.4930111874       10.9937541663        8.2215077186
  H        11.4718224501       10.0294384339        7.1111459273
  H        23.3437805249       11.6234509383        4.1938104771
  C        22.4902753290       11.0841619076        3.7451178926
  H        21.5596758627       11.7320358104        3.7342538225
  C        22.2454526623        9.9202072276        4.6498063584
  C        23.0472320235       10.7736915416        2.3160065511
  C        21.5365731838       10.3947983211        5.8900990185
  H        21.7338733436        9.1216675576        4.0910255457
  H        23.1483231557        9.3938233819        5.0499168204
  H        23.9104892174       11.3313640991        2.2917643061
  H        22.2507480438       11.1459130887        1.6609373515
  H        23.0713723036        9.7408250976        2.0173913475
  C        20.9584208742        9.1845894592        6.7167876109
  H        22.3039572006       10.8484612459        6.5154663228
  H        20.8528767267       11.1335398008        5.6501998021
  C        20.3335838836        9.5810042887        8.0304186350
  H        21.5846525657        8.3861241920        7.0249692680
  H        20.2074228834        8.6870707695        6.0243482965
  C        19.1290318722       10.5018307856        7.9095617081
  H        21.0416982173        9.9951394994        8.7337016781
  H        20.0141404275        8.6434822838        8.5334929708
  C        17.9292469656        9.7722029771        7.3141722866
  H        19.0098026729       10.7785809189        8.9559704703
  H        19.3371638932       11.3810204238        7.3109039972
  C        16.7298969567       10.7242604681        6.9524716576
  H        17.6254150401        8.9836253289        7.9807208847
  H        18.1667253525        9.2001408662        6.4257004980
  C        17.2115919159       12.0663805551        6.2815580770
  C        16.4374738127       11.4792496535        8.2282071715
  C        15.5897702366       10.1311628041        6.1370029755
  C        17.0771610690       13.1580665723        7.0836995043
  C        17.7767242303       12.3776275666        5.0004867351
  C        16.5987615423       12.8314874450        8.3238610421
  C        15.9117117830       10.8190384088        9.3654328124
  H        16.0897240404        9.7398210562        5.2512485964
  H        15.2021713943        9.2632730771        6.5904806195
  C        14.3638068518       10.9332073449        5.7516592313
  S        17.4749687784       14.6851077433        6.2876089765
  C        17.9165825745       13.7575028864        4.8692540753
  H        17.9579686095       11.5694969039        4.3209555804
  C        16.3255162872       13.4096943327        9.5345628381
  H        15.8974850775        9.6947017120        9.2470090113
  C        15.6590831220       11.4283135885       10.5342197431
  H        14.6222524465       11.9862882728        5.6610803435
  H        13.6617936260       10.9259690724        6.5824014121
  C        13.7298821581       10.3398104624        4.4529265898
  C        18.2340830741       14.5297881337        3.6502757366
  C        15.8350555850       12.7767478142       10.6387890203
  H        16.4918293806       14.4571169526        9.5886861232
  C        15.2355685305       11.1023141452       11.8262806676
  H        12.7858351126       10.8865737708        4.4593735345
  H        13.5470315571        9.3004062372        4.5762789447
  C        14.6635413858       10.5943122984        3.1406114982
  C        18.1347965946       15.9143700713        3.3847482213
  C        18.7618704792       13.6884494128        2.5256755892
  C        15.3826381739       13.5326078228       11.9345203515
  C        15.1288760373       12.1858933829       12.6246841165
  S        14.6627930426        9.6049379139       12.6186860329
  H        15.3006798105        9.7365435954        2.9531751453
  H        15.2966691484       11.4948231769        3.2038230137
  C        13.6968799189       10.7457797841        1.9503715298
  N        17.8134640867       16.9473220034        4.3270733611
  C        18.4778461016       16.4299523085        2.1606551310
  C        18.9646866439       14.1475088191        1.2221074472
  H        19.1162010409       12.7245812196        2.7396124967
  C        14.1358750908       14.3173840364       11.6553378408
  C        16.4824125208       14.3824499751       12.6125938666
  C        14.8132057606       11.8248769414       13.9572454760
  C        14.4585308102       10.5056624054       14.1191418662
  H        12.6781677179       10.6253239380        2.3212814244
  H        13.7729702995       11.7272203855        1.5489500352
  C        14.0378680337        9.8385496982        0.8468372486
  S        17.9939027522       18.3875297870        3.5803146063
  N        18.3949265512       17.7854975141        2.1440292632
  C        18.7855391782       15.6416505298        0.9856851987
  H        19.3306274630       13.4417537952        0.5212888436
  H        14.4400640050       15.2226192730       11.1668854916
  H        13.7384790912       14.7648362080       12.5384367744
  C        12.9764694988       13.7095563441       10.8216985141
  H        16.8848046821       15.2080398250       12.0650355332
  H        16.2204248180       14.8989265179       13.5175350135
  C        17.6246523136       13.4697122911       13.0939163838
  H        14.7412025550       12.6001140945       14.6284577941
  C        14.0294540563        9.7375958963       15.3809660773
  H        13.7802730463        8.7894061034        1.1667951765
  H        15.1178405832        9.9338662219        0.4826855869
  C        13.1994321332       10.1204435020       -0.4536775294
  C        18.9467535195       16.2500754477       -0.2688605322
  H        13.4195583421       13.5023997108        9.8235070272
  H        12.7844812897       12.7028680663       11.1791091151
  C        11.7251720234       14.5040714253       10.6148376986
  H        18.0588118166       12.8103528138       12.3697589130
  H        17.2584057307       12.8467668338       13.8621181751
  C        18.7814313526       14.2241420346       13.6033679872
  C        13.7953406094        8.3508005841       15.5124109400
  C        13.7721938342       10.5937805981       16.5885710450
  H        13.5583021467       11.0346676418       -0.8885250766
  H        13.4166804388        9.2646104842       -1.1398169195
  C        11.6542617571       10.1670698465       -0.2956131036
  H        18.6675325695       17.2925350662       -0.2089754943
  C        19.2628413139       15.8435649578       -1.5291027602
  H        11.8572524259       15.2608571246        9.8735709074
  H        11.3692947134       15.1570999530       11.4335333351
  C        10.5888934959       13.5602018487       10.1055138720
  H        19.0690825026       15.0968360211       12.9332624439
  H        18.5206124295       14.7327976482       14.5789303691
  C        19.9871831303       13.3185023991       13.9910737347
  N        14.1634514919        7.3179241621       14.6137365755
  C        13.4544383970        7.7931011457       16.7086897346
  C        13.4012988724        9.9598732496       17.7498904649
  H        13.8888672782       11.7271882177       16.6041341364
  H        11.1956852988        9.8180731766       -1.2704261748
  H        11.3591940996       11.2001534255       -0.0190641219
  H        11.3692757535        9.4138965912        0.4694551991
  S        19.7723318778       14.3466564606       -1.9997269574
  C        19.1870823078       16.8822482311       -2.5701737985
  H        10.8523439639       13.0748908018        9.1419336213
  H        10.3592714042       12.7686410375       10.7645215811
  C         9.3212916155       14.3974012343        9.7904782086
  H        20.0613846388       12.6128075633       13.2120801805
  H        19.7844872446       12.7635271589       14.8835523821
  C        21.2753964157       14.0480400939       14.0007992592
  S        14.1174701741        5.8895111926       15.3127612726
  N        13.5596413182        6.3538954345       16.7297927245
  C        13.2673980054        8.5119362313       17.8964523171
  H        13.3015267133       10.5391379021       18.6080156827
  C        19.9842081763       15.1143059242       -3.6216358928
  N        19.6680296977       16.4387991090       -3.6706440543
  O        18.6751904630       18.0009595286       -2.4474958040
  H         8.7281197549       14.5829773965       10.7259354875
  H         9.5946364129       15.3497073042        9.3401693762
  C         8.4068977176       13.7220061029        8.7950707225
  H        22.1661821513       13.4280235947       14.0981315970
  H        21.2190460458       14.6685543336       13.1142811100
  C        21.3870982181       15.0020785247       15.2265074448
  C        12.9921330756        7.7979645912       19.0768186566
  S        20.4298686598       14.3360758936       -5.1406603310
  C        19.4930375618       17.2610733621       -4.8842692235
  H         8.8431275679       13.8320049354        7.8319801694
  H         8.5082297955       12.6350174222        8.8784531576
  C         6.9285326720       14.3573102470        8.6893148371
  H        21.9910132185       14.5002988567       15.9608417133
  H        20.4464635309       15.2342316213       15.6889360268
  C        22.0710694683       16.3903554653       14.8779299590
  H        13.1544850721        6.7218206368       19.1697515267
  C        12.6244532189        8.2623211514       20.2804177674
  H        20.1116089338       16.8725916521       -5.7025663393
  H        19.9228095858       18.2067944666       -4.6577447977
  C        17.9823159336       17.2536526675       -5.4207623551
  H         6.4422151326       13.9876059396        7.8325825471
  H         6.8425723234       15.4813953311        8.5981383322
  C         6.1090065938       13.8286882472        9.8055935304
  H        23.1411096643       16.2817769067       14.6596828057
  H        21.5393414041       16.8349339799       14.0262022651
  C        22.0714245528       17.2164723239       16.1135103888
  S        12.0585072968        9.8507335425       20.6764402605
  C        12.4058676610        7.2418305566       21.3530884952
  H        17.4968453023       18.2595132407       -5.1602195205
  H        17.3673065711       16.5155449729       -4.8796410581
  H        17.9243469158       17.2544332835       -6.5330230662
  H         6.2952810218       14.2983895389       10.6797436250
  H         5.0558774974       13.9960663960        9.5885735474
  H         6.3463187819       12.7425888816        9.9538222078
  H        22.5106738523       16.5015121988       16.8614088338
  H        22.7911807294       18.0301997460       15.9457289838
  H        21.0752213107       17.5163266636       16.4920046498
  C        11.7388012192        9.1897183822       22.3232653475
  N        11.8556432617        7.8103288994       22.3911140543
  O        12.4513064699        6.0510400097       21.1428846534
  S        10.8942453260        9.9864674667       23.6353056127
  C        11.4276802990        7.0163112498       23.4835616211
  H        11.0500828381        6.0683373598       23.1344679924
  H        10.4582588974        7.3663973467       23.8594712527
  C        12.5407112618        6.8558269485       24.5687203834
  H        12.6238562616        5.9604248539       25.1615721590
  H        12.5355490103        7.6020640308       25.3059690610
  H        13.5585207312        6.9817290843       24.1527986789
