352
 i =    81800, time =    81800.000, E =        25.3273325040
  H        10.6451541414        7.1254255968       32.1196995443
  C        11.6258901597        6.6425590603       32.1464928686
  H        12.2910522983        7.4305893513       32.3371107383
  C        11.8047095057        6.1279134651       30.7003374536
  C        11.4610236305        5.6129612475       33.3015633383
  C        10.5865827598        5.2933071012       30.2914945430
  H        11.8690701198        6.9794597973       29.9743320556
  H        12.7327475670        5.5526582034       30.5896572569
  H        11.9001322769        6.0718207318       34.1995498169
  H        10.4464781240        5.1749714715       33.5464173946
  H        12.1370552328        4.7562768185       33.1063859906
  C         9.9956594768        5.9847263135       29.0852103900
  H         9.8972106595        5.2082889383       31.1236962011
  H        10.8131841028        4.2866004850       29.9227702675
  C        10.8155729956        5.8966884562       27.8236618350
  H         9.0209821373        5.5774466941       28.9329616666
  H         9.9006191764        7.0944945100       29.2667277609
  C         9.9374885287        5.1022190389       26.7421817417
  H        11.7692623302        5.5050134171       27.9749625925
  H        11.0139125049        6.9172091744       27.5538913687
  C         8.6976761315        5.9775695643       26.2210060599
  H        10.6474837748        4.8003119838       25.8937539274
  H         9.4839762479        4.2205398701       27.1666908026
  C         7.6601096476        5.1354187095       25.3746264697
  H         8.2937146463        6.4690037696       27.0297564459
  H         8.9458995013        6.7502904421       25.5362384778
  C         7.2842825293        3.7925770629       25.9984180552
  C         8.0919068603        4.4415423019       24.1057087120
  C         6.4086839544        5.8464557935       24.9416651821
  C         7.4687894510        2.6883977856       25.1678481898
  C         6.9489614912        3.4204529663       27.3133919053
  C         7.9240179759        3.0787180092       23.9837691117
  C         8.4416465156        5.1327818726       22.9688270353
  H         5.8510776521        5.2303360495       24.2808617945
  H         6.7364399071        6.7301467859       24.3993992542
  C         5.4599304753        6.1944170231       26.0941245807
  S         7.1623733083        1.2102607475       25.9464579155
  C         6.7662459978        2.0495465299       27.4219860920
  H         6.9811961735        4.1535401848       28.1167202171
  C         8.2292543858        2.5436788214       22.7714731072
  H         8.3887852545        6.1811118876       23.1192113772
  C         8.7590223508        4.5773871535       21.7861716671
  H         5.5089548902        5.4703137590       26.9181860105
  H         5.7328741340        7.1016761843       26.6545447462
  C         3.9958551424        6.4430139647       25.6217829963
  C         6.3418578770        1.4074733936       28.7498520096
  C         8.6717570934        3.2110327725       21.6709376255
  H         7.8921927732        1.4998417532       22.5507545872
  C         9.1601217529        4.9622996250       20.5399412957
  H         3.7026981746        5.6048627783       25.0382875669
  H         3.9004122409        7.3250142258       24.8572176669
  C         2.9243571464        6.6443417342       26.6770691307
  C         6.3943261781        0.0048646862       28.9717696282
  C         6.1583355415        2.2517240922       29.9350419257
  C         8.9006687015        2.5124934912       20.3500981942
  C         9.1689607064        3.8857763208       19.6885414909
  S         9.5733562557        6.4640528113       19.8452826903
  H         2.1634569349        7.3419241433       26.2336794627
  H         3.4960791592        6.9308287983       27.5343954486
  C         2.1032046688        5.3612965798       26.9410994183
  N         6.7998155598       -0.9813547565       28.0276181070
  C         6.0254455339       -0.4903939486       30.2147482822
  C         5.7613150398        1.7519645675       31.1270281271
  H         6.3178863527        3.3206957518       29.9071416269
  C         7.7036826730        1.8916529829       19.6262764907
  C        10.1758804472        1.6487113515       20.4186528568
  C         9.4343132664        4.3471315189       18.3911604421
  C         9.7469538597        5.7064901090       18.2972780266
  H         1.3741874147        5.2003046355       26.1341887737
  H         2.6242330279        4.4675028836       26.9167338484
  C         1.2900613733        5.5157939464       28.2249413020
  S         6.5803476015       -2.4663450333       28.7799559004
  N         6.0002213766       -1.9018685650       30.1776876306
  C         5.6728316246        0.2898693542       31.3116641468
  H         5.6592026279        2.4162131988       31.9702089562
  H         7.3692100828        1.0446093503       20.2451381812
  H         7.8150736316        1.5828757507       18.5720001126
  C         6.5153434811        2.8648517199       19.5186997306
  H        10.3272148584        1.2102036719       19.4864651437
  H         9.9021850144        0.7980658186       21.0949660350
  C        11.3998380951        2.3876782358       21.1134901634
  H         9.3086930891        3.5903599335       17.6035215145
  C        10.1110997871        6.4922722921       17.0885724024
  H         0.3794587948        4.9339846493       28.1821983906
  H         0.9243739970        6.5328027510       28.3412061455
  C         1.7821513402        4.8249396908       29.5325195125
  C         5.3436512403       -0.3239106069       32.5380932916
  H         6.6961382233        3.6997973197       18.7051418320
  H         6.3502812068        3.5360192208       20.3847068125
  C         5.1311030964        2.2551060117       19.2036029217
  H        11.0782194354        2.7476113677       22.0848594247
  H        11.5644326240        3.2336237041       20.5260318409
  C        12.6779420440        1.6008747507       21.2311065705
  C        10.2071675998        7.8896733203       17.0268305553
  C        10.4637982577        5.7870393585       15.8970316624
  H         1.0935885882        4.1873811907       30.0989037819
  H         2.5907267420        4.1861505902       29.2333991574
  C         2.4826005719        5.7654915705       30.4854926322
  H         5.4502273156       -1.3983600453       32.5251037686
  C         5.1206319581        0.1958563905       33.7825722953
  H         4.3437303879        3.0842156067       19.1613365476
  H         4.9636873172        1.7164872927       20.1604255625
  C         5.1601789770        1.3542059612       18.0086150532
  H        12.4264892297        0.8537920519       21.9407103766
  H        12.8906035161        1.1609840408       20.2865518903
  C        13.9930331954        2.2775286297       21.7345376477
  N         9.8774439186        8.8078215389       18.0814340864
  C        10.5025290470        8.5463521306       15.8730602706
  C        10.8239611715        6.3748269959       14.7478454633
  H        10.3743200043        4.6798937537       15.9433314136
  H         2.7187800617        5.2796627667       31.4169116042
  H         3.4571762570        5.9677273900       30.0676131647
  H         1.9130848696        6.6747341428       30.7061342209
  S         5.0037934635        1.8295490944       34.3739322438
  C         5.0625366037       -0.8064210771       34.8780354865
  H         5.6712505145        1.8838129613       17.2018077491
  H         5.8012223534        0.4858849127       18.3161223448
  C         3.8453732870        0.6606538818       17.5705099097
  H        13.6457732604        3.1226996941       22.3573307461
  H        14.4853860925        2.6516711937       20.8035598876
  C        15.0217220163        1.4199508029       22.5419227725
  S        10.1365525220       10.3032665581       17.5935337132
  N        10.4326100667        9.9807640628       15.9994134262
  C        10.8774108824        7.8461861924       14.6510055329
  H        10.7739812874        5.8422690354       13.7945755744
  C         4.7096587494        1.1233601440       35.9527585611
  N         4.7369412098       -0.2414856287       36.0541628992
  O         5.1014853141       -2.0213412608       34.7171850671
  H         3.8390856908        0.5871311609       16.4460428141
  H         2.9581347045        1.2187435638       17.8517031389
  C         3.7437959216       -0.7604216310       18.2560206158
  H        14.4430517435        0.8562895384       23.2366971682
  H        15.5688398435        0.7542884114       21.9233140259
  C        15.8806657201        2.4435604378       23.2444694022
  C        11.0779668199        8.6330003923       13.4520808783
  S         4.2202842742        2.0271607241       37.3102720101
  C         4.8123913810       -1.1138482267       37.2859962701
  H         4.3183119162       -1.4291252072       17.6260867182
  H         3.8685566857       -0.8946547523       19.3789725043
  C         2.3244705941       -1.2439935704       18.0802433615
  H        15.3137584032        2.9090814741       24.0423629861
  H        16.3974007061        3.2242778405       22.5978471464
  C        17.0627053712        1.7375003159       23.9387286998
  H        10.9281828462        9.7071437587       13.5307683670
  C        11.5958637829        8.3068324751       12.2396296334
  H         3.9797070623       -0.7515914108       37.9606049556
  H         4.4675696131       -2.0776468163       37.0256700263
  C         6.2290589610       -1.3017997182       37.8102550114
  H         1.5765266625       -0.5088887885       18.2998591836
  H         2.1269708527       -2.1473935901       18.7304112589
  C         2.1698293066       -1.9021219762       16.6684490376
  H        17.3309631059        2.2287558433       24.7860704806
  H        16.7673497928        0.7315033197       24.2925560406
  C        18.2937233783        1.6141068599       22.9375007874
  S        12.1463529760        6.7610145776       11.6998410429
  C        11.7227884421        9.3692673841       11.2530583931
  H         6.9630567576       -1.9668533094       37.2545121965
  H         6.6364582576       -0.3768501864       37.9872278837
  H         6.2531475752       -1.8412089138       38.7643901474
  H         2.8385988599       -2.6903018614       16.3675375263
  H         2.1552229700       -1.1916619311       15.8431132548
  H         1.1289918952       -2.2378449093       16.5647705191
  H        18.8636277479        2.5036884892       22.8824657687
  H        17.9429499641        1.6267093209       21.9159913019
  H        18.9126840937        0.7453801172       23.0640825496
  C        12.6129194230        7.6256810250       10.1751588139
  N        12.4108448876        8.9638436722       10.1538516636
  O        11.2963412859       10.4752794625       11.4218142717
  S        13.3974986170        6.9146698527        8.7118621408
  C        12.5830488275        9.7886098107        8.9704386209
  H        12.5924232808       10.8763205576        9.2112893820
  H        13.5417947050        9.5774801785        8.4992089401
  C        11.3826473682        9.5778025640        8.0871904312
  H        11.8446396316        9.4461536603        7.0758686785
  H        10.9204344014        8.5646780005        8.1679944718
  H        10.7163874810       10.4278753408        8.1120416338
  H        21.4941056338       11.4496064759        3.6143548014
  C        21.9437820779       10.4278210029        3.3884264115
  H        21.2232320870        9.6984987849        3.6184987294
  C        23.1818940754       10.3862448265        4.2689524302
  C        22.2897937801       10.5109219066        1.9059856416
  C        22.6344745930       10.3659579336        5.7552530065
  H        23.6132402239        9.4079510976        4.0179938235
  H        23.8428345529       11.1585314114        3.8937023376
  H        23.1385037782       11.1341436667        1.7635939420
  H        21.5749645477       10.8798412481        1.2368738458
  H        22.5547290240        9.5494660098        1.5967529419
  C        22.1457962324        9.0125676151        6.2375206533
  H        23.4316455881       10.7256156587        6.4575826442
  H        21.7973684722       11.0342222662        5.8031303727
  C        20.9765836400        9.1425458007        7.2761883594
  H        23.0233191781        8.4535777799        6.5884121942
  H        21.6889640144        8.5800776187        5.3603532434
  C        19.5789057691        9.4481029268        6.6400064114
  H        21.0551317475        9.9323177761        8.0021837430
  H        20.9723266018        8.1748448547        7.8061719559
  C        18.6058646233        9.7752444871        7.7222459678
  H        19.6692621324       10.2162460690        5.9547890065
  H        19.2155791259        8.5412358834        6.0542287599
  C        17.3036082167       10.5411227769        7.1827381722
  H        19.0539490057       10.5513835951        8.4042319983
  H        18.3645941833        8.8338816411        8.3225271775
  C        17.6584806352       11.8668353036        6.4623652393
  C        16.6408129108       11.3005054195        8.3229406499
  C        16.3255708393        9.6925582487        6.3064517111
  C        17.1914727512       12.9713611135        7.1207819439
  C        18.0143556299       12.2074110067        5.1223208825
  C        16.7249673110       12.6476715381        8.3815848759
  C        16.1136352443       10.6998048646        9.4981173019
  H        16.8438825451        9.3825880356        5.2912780427
  H        16.1045949811        8.7386063620        6.8061053058
  C        15.0143629512       10.4471317223        6.0040570061
  S        17.4464464949       14.4100457771        6.2662298524
  C        18.0247201744       13.5533363681        4.9576559090
  H        18.5041473016       11.4584147358        4.4730823851
  C        16.2342498453       13.3335814497        9.4874761217
  H        16.1299033014        9.5978504037        9.4418645943
  C        15.7168493912       11.4137606423       10.5880563190
  H        15.1435992661       11.3927227151        5.4758651549
  H        14.5308457459       10.8550945308        6.8929186267
  C        13.9715486353        9.7301858146        5.2219967792
  C        18.3696753059       14.2956730875        3.7059713467
  C        15.7992987356       12.7402739652       10.6858177635
  H        16.1833769552       14.4280867050        9.3646514301
  C        15.3666446273       11.1348816067       11.8851723513
  H        13.2176294812       10.4824527370        5.1744631845
  H        13.5556576452        8.7859611398        5.6734610637
  C        14.4052893589        9.4248549088        3.8251266846
  C        18.3249162420       15.7091181971        3.5272518552
  C        18.5818044136       13.5602106755        2.4208186382
  C        15.3058242695       13.5078538815       11.9251406549
  C        15.0574876612       12.1947388624       12.6545267591
  S        15.2125213805        9.6084792553       12.6529715130
  H        14.6008512107        8.3659153742        3.6634076902
  H        15.3101033221       10.0322981983        3.5937278144
  C        13.2783298894        9.7951083044        2.8723878732
  N        17.9242860715       16.6524803000        4.4961679361
  C        18.5508160065       16.3215856802        2.2773920900
  C        18.8428865176       14.2065934715        1.2081008890
  H        18.4487536150       12.4590161342        2.4413017947
  C        14.0225386275       14.2572665461       11.6296611367
  C        16.4374417083       14.2626401444       12.6462578737
  C        14.6348008242       11.7361587500       13.9363777623
  C        14.6902323465       10.3837028291       14.1135893380
  H        12.3888950085        9.4122500298        3.4510692075
  H        13.1208628732       10.8972144084        2.7798638082
  C        13.4582303875        9.2608228000        1.4911637261
  S        18.0001986346       18.1230654774        3.8771250232
  N        18.3108801469       17.6918649458        2.3378705673
  C        18.7972519305       15.6356632292        1.0371049204
  H        19.0154687116       13.5991769570        0.3274616736
  H        14.2863084942       15.0630123581       10.9084860605
  H        13.6762710544       14.7954644196       12.5622030092
  C        12.8206262617       13.4927476809       11.0895956252
  H        16.6414939934       15.1664172218       11.9854478539
  H        16.1440036078       14.6826233223       13.6336334076
  C        17.6801450445       13.4458956164       12.9525653699
  H        14.4123337881       12.4740597550       14.7194423842
  C        14.2978581264        9.5600011276       15.3172456944
  H        12.9990032555        8.2949675523        1.5544060821
  H        14.5075821508        9.1536317366        1.2421539517
  C        12.8005279491       10.1512238258        0.3681925522
  C        19.2364550164       16.4130715300       -0.0732137414
  H        13.1290174832       12.9179826221       10.1694398419
  H        12.5639749703       12.6453789248       11.6917557204
  C        11.5233880271       14.2639465302       10.7303919506
  H        18.1592035160       13.1995658802       11.9496752587
  H        17.5405166844       12.4701451842       13.4298295870
  C        18.6396264163       14.2516942316       13.8629633235
  C        14.1872720758        8.1589461033       15.4669099401
  C        14.0334561847       10.3276992812       16.5318717654
  H        11.7605631253        9.8474530476        0.3665638424
  H        12.8938753179       11.1629286410        0.7085528254
  C        13.4614005558        9.9979603139       -0.9845881037
  H        19.3564782295       17.4215031703        0.1491635889
  C        19.5675963463       16.1167219967       -1.3858816732
  H        11.8283453854       14.7809482758        9.8695064480
  H        11.2949044200       14.9851397476       11.4658828256
  C        10.2996346702       13.3557181749       10.5335951485
  H        18.8465865923       15.1945318354       13.2959627484
  H        18.1707544384       14.4362973578       14.8577073209
  C        19.9501691936       13.5301358701       13.9562869763
  N        14.4138583032        7.1976614613       14.4431547679
  C        13.8227966972        7.5450761598       16.6607764794
  C        13.6785566138        9.6861917302       17.7572955647
  H        14.1812983897       11.4187787374       16.5280735840
  H        14.5529540243        9.7423648858       -0.9336578074
  H        13.5187680558       11.0111116113       -1.3514953928
  H        12.9395965532        9.3226137061       -1.6825615969
  S        19.8216699194       14.5372458792       -2.0638921890
  C        19.6860289774       17.2228183761       -2.4187529987
  H        10.5322817338       12.4406716233       10.0047781297
  H         9.8018249217       12.9930668244       11.4084749629
  C         9.3336511284       14.2564448341        9.6438345515
  H        19.9861300906       12.6816854570       13.2236628595
  H        20.0044849832       13.0862552750       14.9552507736
  C        21.2305296586       14.3492951246       13.7496324200
  S        14.4790037974        5.7353163469       15.1391393844
  N        13.8434693675        6.1256117277       16.5243739207
  C        13.5025138738        8.2310245962       17.8723221574
  H        13.5911585768       10.2746371088       18.6481191526
  C        20.0690326112       15.3931931584       -3.5794100931
  N        20.0243750023       16.7108923675       -3.6120146736
  O        19.4311051632       18.4079188923       -2.1839977099
  H         8.8636118395       15.0310147271       10.2933728164
  H         9.9289409801       14.8034745010        8.8536875144
  C         8.2808739480       13.3168304188        9.1009808226
  H        22.0344259932       13.6668968483       13.9471857773
  H        21.2059181847       14.7210518495       12.7117776679
  C        21.5115993855       15.5469566084       14.6256844202
  C        13.2405034005        7.4369123019       19.0505424379
  S        20.4055709280       14.5617416237       -5.0363980609
  C        19.9343362119       17.5041122178       -4.8288980768
  H         8.5201859611       12.6717082145        8.2407550784
  H         8.1292756453       12.5612608021        9.8796831173
  C         6.8490351929       13.9022845614        9.1513492685
  H        22.3694973114       15.2825164677       15.3104515422
  H        20.6878308563       15.6737853630       15.2636565780
  C        21.6792994867       16.8635124544       13.8372579318
  H        13.4951363325        6.4136346394       18.9961548013
  C        12.6379609793        7.7083113479       20.2960502268
  H        20.7254813144       17.2305064059       -5.4984771666
  H        20.2381354522       18.5918754691       -4.6370732542
  C        18.5447862629       17.4745150737       -5.4353770659
  H         6.1456086108       13.5663757816        8.3376484006
  H         6.8216887958       15.0267086792        9.0296942958
  C         6.2515495530       13.7758265226       10.5477789728
  H        22.4493258771       16.7740914232       13.0436424569
  H        20.7729200164       17.0530200114       13.2700842388
  C        21.9371387393       17.9955895934       14.7394917971
  S        12.0597246128        9.2100054474       20.9362635713
  C        12.4381712624        6.5401946081       21.2081385376
  H        18.1875898590       18.4758364790       -5.7741668415
  H        17.8360607235       16.9847831432       -4.7954623554
  H        18.5180799833       17.0927024873       -6.4337036844
  H         5.9888959631       12.7802895069       10.8031331432
  H         6.8524240653       14.1964677065       11.2822588994
  H         5.3156919378       14.3340387068       10.5939390739
  H        22.3244195795       17.5614582355       15.6729298003
  H        22.6089349849       18.6506113205       14.1108835470
  H        21.0252590954       18.5823049606       15.1275255423
  C        11.6271915281        8.2489002362       22.3981665703
  N        11.9347412864        6.9570866420       22.3448053005
  O        12.9952624558        5.4654486510       21.0139629062
  S        10.8983980351        8.8442615532       23.9652245931
  C        11.8539913284        5.9869602337       23.4285247797
  H        11.3331692609        5.0873322970       23.0884795331
  H        11.3400756845        6.3173245047       24.3465213070
  C        13.2294779106        5.8202929960       23.9789666720
  H        12.9745430977        5.5077307648       25.0488249126
  H        13.9032245412        6.6906463395       23.8587778165
  H        13.7222400497        5.0219001522       23.5053258447
