352
 i =    88500, time =    88500.000, E =        25.3877304890
  H         9.5421627052        6.6842474540       31.5483370841
  C        10.6014942245        6.8587287281       31.8070732048
  H        10.8069269475        7.9141447109       31.9441598766
  C        11.4405177396        6.2838353149       30.6510375827
  C        10.8328707861        6.0959468213       33.1279599273
  C        10.7710919981        5.0606922671       29.8731846233
  H        11.5177934199        7.1239772568       30.0143658362
  H        12.4626183222        5.9964989989       30.9042868573
  H        10.7329461621        5.0586181119       32.8379704856
  H        11.7998161647        6.3899327038       33.3769439461
  H        10.1569745106        6.4793357510       33.9045617186
  C         9.6148341882        5.3421536697       28.8809110290
  H        10.4880707757        4.2373335183       30.5205888779
  H        11.6467062160        4.5177637484       29.2956974436
  C         9.9767513974        5.6411230588       27.4741195059
  H         8.7298104398        4.6139040673       29.0561660521
  H         9.2294412609        6.2716837676       29.2993688449
  C         9.3392669746        4.9377446678       26.2906397078
  H        11.0463562081        5.3755077723       27.2879596450
  H        10.0211976238        6.7046712019       27.2917454704
  C         8.0338183436        5.6827654313       25.8651859173
  H        10.0652730320        4.8633427080       25.4369006556
  H         9.1051109979        3.8773050934       26.5226688118
  C         6.9165362298        4.8736427256       25.1542303261
  H         7.6899031244        6.4092520064       26.5693433432
  H         8.3566661283        6.3088265525       25.0093666764
  C         6.6001881054        3.5651905090       25.9036788933
  C         7.4667389250        4.1229950463       24.0403000756
  C         5.6548126544        5.5669360969       24.7011515658
  C         6.9144907919        2.4555575658       25.1523114256
  C         6.1624680199        3.2380654783       27.1829260135
  C         7.3888902847        2.8123667382       23.9372881497
  C         7.9512618110        4.7614091568       22.9052917023
  H         5.1747067123        4.9156611764       24.0317351665
  H         5.9328704497        6.4785722872       24.1734272473
  C         4.7227860910        6.0022517009       25.8282694618
  S         6.4744924892        0.9824143345       25.9472678310
  C         5.9524486105        1.8628479736       27.3777070511
  H         5.8608886049        4.0562894932       27.8162274948
  C         7.8703406183        2.1809758937       22.8120096970
  H         7.9252376421        5.7700368968       22.7619292949
  C         8.4669871458        4.1450283753       21.8209843294
  H         4.7510629639        5.4302433186       26.7576165218
  H         5.1351418473        7.0305597112       26.0622135271
  C         3.3017471032        6.2509073803       25.3583236035
  C         5.4735969114        1.2204878766       28.6382505666
  C         8.4320877391        2.8006566842       21.7178553944
  H         7.8724268792        1.0862565641       22.7373937640
  C         9.1012402201        4.5373157698       20.6359887132
  H         2.9081512071        5.2737191644       24.9046652569
  H         3.4182522104        7.0576046603       24.6208375365
  C         2.3425817966        6.5024591978       26.4902227243
  C         5.5063262775       -0.1283023188       28.9732394838
  C         5.0550296854        2.0352482537       29.8027354912
  C         8.9992131010        2.1459643153       20.4428266842
  C         9.4149259514        3.5025373104       19.7927151881
  S         9.4605060662        6.0165447898       19.9287935035
  H         1.4456361368        6.9338818434       26.0303799912
  H         2.7791690411        7.1958141556       27.1163144974
  C         1.9863520861        5.1850946106       27.2640775606
  N         6.1323973557       -1.0821755217       28.1590739471
  C         5.0753280944       -0.6598627326       30.1791664188
  C         4.6437681268        1.5537234253       31.0343723494
  H         5.2090323487        3.1540404300       29.7361148072
  C         7.9987188549        1.4912570891       19.5523852318
  C        10.1921337985        1.3091420995       20.7914783767
  C         9.7915086932        3.8965083422       18.4516726557
  C         9.8351255615        5.2792499177       18.3963147560
  H         1.8419278128        4.4318468603       26.5060628398
  H         2.8032223820        4.7966376777       27.8245004875
  C         0.8505137992        5.2471167643       28.3004449968
  S         5.9168974780       -2.5238505822       28.9003680193
  N         5.3000059702       -2.0180049603       30.2635430875
  C         4.6473754939        0.0798306439       31.2579588923
  H         4.3968801690        2.2513791884       31.7427295485
  H         7.7421233465        0.5312367721       20.1281611255
  H         8.5128953578        1.2085289416       18.6023596193
  C         6.6778712026        2.2760476163       19.4127167651
  H        10.5788326105        0.7785793915       19.9460962579
  H         9.9243540147        0.4696855378       21.4353263186
  C        11.3964870172        2.0967289534       21.3146684361
  H        10.0899843997        3.1266775974       17.6787741684
  C        10.2191200944        6.1007804849       17.2574214779
  H         0.5643978346        4.2383739651       28.6587952571
  H         0.0060734653        5.6804040540       27.8156829523
  C         1.2750431374        6.1048943769       29.5058304468
  C         4.3943317330       -0.5380267097       32.5777215248
  H         6.8074060824        3.1338020257       18.7461711662
  H         6.3002304653        2.5747280420       20.3876600331
  C         5.6237520339        1.3765660864       18.7263079013
  H        11.1725741637        2.6410862914       22.2632063531
  H        11.7146998505        2.7713566159       20.5589792280
  C        12.5802816602        1.1804251237       21.6985975490
  C        10.1151122684        7.4891750840       17.0077316077
  C        10.6293967365        5.3518539998       15.9836553868
  H         2.0000175404        6.8160212684       29.0882035176
  H         0.4193464854        6.6554695605       29.9121656519
  C         1.9011308577        5.3327725464       30.6795646848
  H         4.3753893782       -1.5735356726       32.4696175349
  C         4.2470253653        0.0091367146       33.8505866201
  H         5.1823052086        0.6980123387       19.4836308751
  H         5.9953142906        0.6758197443       17.9242295277
  C         4.4304756380        2.2476049187       18.3863194838
  H        12.9670538386        1.5541312890       22.6359809853
  H        12.2308225516        0.1641309639       21.9219249111
  C        13.6203452112        1.0310600171       20.6739002602
  N         9.8512172150        8.4245744483       18.0280857908
  C        10.4526441434        8.0958765982       15.7940134523
  C        10.7830672150        5.9151556154       14.7078965722
  H        10.6475754074        4.2777485999       15.9755242709
  H         2.4300620355        5.9694164627       31.3653778631
  H         1.2191001929        4.7727336683       31.2961236020
  H         2.6687581355        4.5850817831       30.4030721362
  S         4.0575142162        1.6851851218       34.2754053846
  C         4.0911017696       -0.9851617942       34.9391524749
  H         4.7299559269        3.3594729473       18.6869361896
  H         4.3018703280        2.2682159361       17.2767251347
  C         3.1091201553        1.7799562063       19.0205473183
  H        13.6510874569        2.0199446253       20.0971663092
  H        13.3235251467        0.2894044271       20.0019718944
  C        14.9841489241        0.7089568280       21.3191049515
  S        10.0038058297        9.9502664194       17.3606927068
  N        10.5028793262        9.4968925835       15.8726742253
  C        10.8161294452        7.3757302379       14.5981203485
  H        10.9660807211        5.2314410460       13.8924629743
  C         3.9046379788        1.0516395713       35.9409151793
  N         3.8638045112       -0.3480818542       36.0838745578
  O         4.1753965688       -2.2241320683       34.7716440525
  H         2.4390423976        2.5759860209       19.2452049184
  H         3.4675992505        1.4545506735       20.0325015360
  C         2.4201417652        0.7088776133       18.1869300899
  H        14.8616834220       -0.0469890240       22.0865835255
  H        15.6365882937        0.2946613363       20.5692714025
  C        15.7520275711        2.0572648217       21.6515331183
  C        11.0769918211        8.1291912247       13.4204958933
  S         3.5473485043        1.9796216756       37.3461874887
  C         3.6399651299       -1.1618993678       37.2408393984
  H         1.3944386029        0.6718436390       18.6236428240
  H         2.3219620116        0.9669935093       17.1321053698
  C         2.9487903926       -0.7041493126       18.3828715432
  H        15.0961775009        2.8889861737       21.8606175084
  H        16.4277117858        2.3239952198       20.8406312020
  C        16.5282702544        1.9591497703       22.9316134435
  H        10.6728305797        9.1424359041       13.5100659342
  C        11.5782497269        7.8257837892       12.1757785153
  H         3.1206273170       -0.5855049973       38.0368409486
  H         2.8519151940       -1.9067124555       37.0116070592
  C         4.9937773139       -1.5946137635       37.8019921410
  H         3.1542186845       -0.8911278164       19.4880676602
  H         3.9483892083       -0.9603023640       17.9488833174
  C         1.8515356129       -1.6618553355       17.9193933880
  H        16.3069649559        2.8923267769       23.5071366790
  H        16.1667751057        1.1573360979       23.5848447614
  C        17.9763186104        1.8342674217       22.6526182231
  S        12.1614657580        6.3258997313       11.6599856822
  C        11.4737832137        8.8969453064       11.1731443171
  H         4.9927072347       -2.6200878113       38.1338258866
  H         5.7875920656       -1.6029511364       37.0496109430
  H         5.4755168834       -1.0030100787       38.5930932195
  H         0.8837777827       -1.1557313424       18.0522140537
  H         1.8808650982       -2.5850202719       18.5075784079
  H         2.0005398370       -2.0322817669       16.9044471224
  H        18.2805931040        2.6459522600       22.0026020791
  H        18.2096880235        0.8884596988       22.2494572163
  H        18.5578167897        1.9691931413       23.6228872748
  C        12.5302936465        7.1488134725       10.1705938609
  N        12.1473787737        8.4289694405       10.0993399536
  O        11.2052635911       10.1091714267       11.3937301473
  S        13.3281200960        6.4949095606        8.6914865601
  C        12.2831893171        9.3145994247        8.9309667423
  H        12.2953178184       10.4254153761        9.2172497941
  H        13.2293875032        9.1034501224        8.4929329794
  C        11.2087600459        9.0267279531        7.8864408133
  H        10.9504956188        9.9638327566        7.4409867147
  H        11.4792692196        8.2979583688        7.0921051720
  H        10.2657260813        8.7559224928        8.3299365055
  H        21.6944145441       10.4445758958        3.0076836824
  C        22.2166229414        9.5257396474        3.1579490214
  H        21.5766255325        8.6817657384        3.1145379034
  C        23.0024902586        9.6103617705        4.4090683003
  C        23.1697855985        9.4814829433        1.9894380531
  C        21.9557132082        9.8202531854        5.5031388927
  H        23.8012810164        8.8139528826        4.5211047783
  H        23.5580861166       10.5386780205        4.4292092458
  H        23.4733848084       10.5089159466        1.7082559843
  H        22.7013543862        8.9019971037        1.1569341635
  H        24.0277789670        8.9386701262        2.2483133147
  C        20.6901079734        8.9018575686        5.4781441116
  H        22.4373177410        9.7392945097        6.4428732502
  H        21.6022880700       10.8365519492        5.4073243823
  C        19.7645046407        9.1750034353        6.6406551831
  H        20.9923650154        7.8476338675        5.5582240902
  H        20.1029686574        9.1585053769        4.5881139533
  C        18.2874899160        9.4229444429        6.1591225455
  H        20.1530474352       10.0346811637        7.2221440044
  H        19.7550124378        8.2900867526        7.3347387925
  C        17.3636512027        9.9728281200        7.2297056163
  H        18.1606580840        9.9608973768        5.1822706258
  H        17.8926358175        8.5518791929        5.8838121659
  C        16.2420995964       10.9253960379        6.7794786229
  H        17.8421150284       10.5022043304        7.9166950478
  H        16.7978735430        9.2660918081        7.8416983823
  C        16.6396278144       12.2787496457        6.1974654568
  C        15.8446938890       11.5784836816        8.0464012057
  C        15.1700035261       10.1379388352        6.0455183186
  C        16.4450230259       13.3714244358        6.9897765591
  C        17.1758395202       12.6962458176        4.9519045664
  C        16.0439671600       12.9238624490        8.2445676920
  C        15.4811222160       10.8675070344        9.1908681917
  H        15.4340921744        9.4392653834        5.2295082397
  H        14.8080674158        9.4284719971        6.7528042270
  C        14.1481269339       11.2199075911        5.4795504333
  S        16.7897620858       14.8676531574        6.2664389416
  C        17.4334376425       14.0719375661        4.8784996625
  H        17.3096820321       11.8944599300        4.1982145525
  C        15.6481175214       13.5253820123        9.4153420600
  H        15.3985537620        9.8104643661        9.2574415523
  C        15.2808935950       11.4110204719       10.4102656490
  H        14.7412419437       11.5933447065        4.6503659166
  H        13.8368429471       11.8700025620        6.2901385696
  C        12.8573308272       10.5597786957        5.0273431370
  C        18.0243947861       14.7357968107        3.7138619767
  C        15.3203437987       12.7636786291       10.5673134729
  H        15.7207998148       14.5817710009        9.5902945669
  C        14.9623423775       10.9674166011       11.6630280663
  H        12.0714617567       11.1496553708        5.5113912610
  H        12.7652152263        9.5439737107        5.4077381940
  C        12.5857220080       10.6200213557        3.5402298593
  C        18.0053754688       16.0893462329        3.4506550603
  C        18.6051571632       13.8144793458        2.6652091147
  C        15.0431091221       13.3916697747       11.8886730701
  C        14.7561239300       11.9887044908       12.5665347670
  S        14.7414781031        9.4382587000       12.3314579790
  H        12.7945456289       11.5949585494        3.1537661912
  H        11.5494352231       10.5794483816        3.3107664097
  C        13.4130652220        9.5528788755        2.7536229146
  N        17.6586504331       17.1412937656        4.3317660174
  C        18.3707854034       16.6393680381        2.2549970224
  C        18.8544622383       14.3856345876        1.4617214698
  H        18.6019702708       12.7247301871        2.7009614736
  C        13.7387839247       14.2611994158       11.9095488865
  C        16.2853944429       14.1965766416       12.3981853948
  C        14.3750223262       11.4845224030       13.8340172259
  C        14.2879758715       10.0906005872       13.8972843476
  H        14.4194606905        9.4475332644        3.2645370844
  H        12.8843458951        8.5636393877        2.7811610848
  C        13.6998619169        9.7397265807        1.2448662805
  S        17.8744014566       18.6044526594        3.7162514765
  N        18.1291360136       18.0307885918        2.1821789680
  C        18.7378124769       15.8628967268        1.1740914334
  H        19.2610696123       13.7355620147        0.7662209210
  H        13.9478345299       15.2370732993       11.4878578278
  H        13.4101025619       14.5266667300       12.8959107929
  C        12.6394683975       13.6680743698       11.1882475046
  H        16.4441447569       15.0142813425       11.7167435508
  H        16.0887832047       14.5766708168       13.3854701646
  C        17.5666105103       13.4105103744       12.5362475981
  H        14.1959049805       12.1127701385       14.6544664346
  C        13.9150057092        9.2648963495       15.1483666310
  H        14.3223142364        8.9361720512        0.8151441635
  H        14.3524816267       10.6022774058        0.9607561654
  C        12.3451415305        9.8293734655        0.4107577172
  C        18.9708289471       16.4800116555       -0.1444068384
  H        12.9119361958       13.6631968009       10.1310513618
  H        12.5574293639       12.5839545944       11.4552224854
  C        11.3351840171       14.3651452088       11.4164198541
  H        18.1558470851       13.4754108510       11.6240627482
  H        17.4461401381       12.2767654058       12.5417002727
  C        18.3113567242       13.9459794235       13.8141546801
  C        13.9282740838        7.8182325940       15.2642460206
  C        13.6796921198       10.0592496238       16.4196369956
  H        11.9559043940        8.8286243947        0.2887092355
  H        11.5033281099       10.4026348499        0.8511495906
  C        12.5310841198       10.4779505945       -0.9844589961
  H        18.9447361830       17.5903321215       -0.0857425989
  C        19.1726212102       15.9477007709       -1.4100826188
  H        11.5420965074       15.4266306312       11.4871022375
  H        10.8233063162       13.9833225435       12.3525086885
  C        10.3713280077       14.2426729472       10.2518613569
  H        18.1923195870       14.9930268697       13.9642942691
  H        18.0113059813       13.4398458140       14.6992445222
  C        19.7773375170       13.6922751891       13.7805950346
  N        14.2710330077        6.9325924198       14.2579946787
  C        13.7052923459        7.1808734075       16.4676917711
  C        13.4062558815        9.4507491395       17.6099505801
  H        13.8698136415       11.0870220694       16.3202570766
  H        13.2101739774        9.8686762492       -1.5978637237
  H        13.0307823206       11.4850126686       -0.9777955011
  H        11.5635538777       10.5226994310       -1.5086462447
  S        19.3638960201       14.2585587548       -1.8586944600
  C        19.4358533431       16.9838676581       -2.4774597435
  H         9.4944016512       14.8199389441       10.4355647064
  H        10.8494332302       14.5473564247        9.3456024628
  C         9.9261011774       12.7889366141       10.0667757704
  H        20.1476082120       14.0588732781       12.8618806900
  H        19.9906193973       12.6082213276       13.8264923209
  C        20.5929172902       14.3444734222       14.8867876621
  S        14.2818328668        5.4525073790       14.8998829416
  N        13.8619674189        5.7788821527       16.4647088543
  C        13.3696348253        7.9742909446       17.6244079474
  H        13.2720384141       10.0853121795       18.4273755372
  C        19.6135547679       15.0048872067       -3.4863033893
  N        19.6074508351       16.3475734333       -3.6415256133
  O        19.3887343516       18.2255247559       -2.2625155111
  H        10.6881330007       12.2294256820        9.5703860977
  H         9.5585843926       12.1921956620       10.8953367184
  C         8.7701109144       12.7153452838        9.0468105012
  H        19.9453004562       14.8648796460       15.6437153520
  H        21.0777420023       13.5543411845       15.4124368838
  C        21.5279921926       15.4227395222       14.4077337736
  C        13.1627874140        7.2676720622       18.8620189215
  S        20.0130506013       13.9621546722       -4.8062286692
  C        19.6879367850       17.0420003822       -4.9268016336
  H         8.8476876713       13.6164595241        8.4134488716
  H         8.7973818943       11.7953109719        8.3710710413
  C         7.4726866485       12.7495941771        9.8115369157
  H        21.4350696324       15.5290021385       13.3357605720
  H        22.5277872776       14.9952058029       14.5629008470
  C        21.3640775587       16.7574479776       15.1692838994
  H        13.2559038992        6.2172920977       18.8069390362
  C        12.6265577908        7.6023885687       20.0783748853
  H        20.3357991864       16.5073441961       -5.6666385622
  H        20.0795411641       18.1135376540       -4.8229486974
  C        18.3453723935       17.1465599332       -5.6301809768
  H         7.7329229371       12.9290555882       10.8529766411
  H         7.1060965463       11.7736721786        9.7855710906
  C         6.5734325784       13.8028130667        9.2988895848
  H        20.5015557478       17.2545604241       14.9617005378
  H        21.4079386309       16.5978680443       16.2212461703
  C        22.3723621333       17.8472040502       14.8653041545
  S        12.2028698687        9.1939826751       20.5985949543
  C        12.5375100120        6.4981455564       21.0896133900
  H        17.6763504623       17.7541621550       -5.0237547868
  H        17.9128140130       16.2361370946       -5.9214209936
  H        18.3393391122       17.7845606699       -6.4973688362
  H         6.8100678650       14.8167136654        9.6261532180
  H         6.5753527855       13.7695628558        8.2176185061
  H         5.5397798076       13.6097950378        9.7015442774
  H        22.4229861489       18.3466873062       13.9461722208
  H        22.4014075748       18.7170397607       15.5483730738
  H        23.3794819523       17.3652492242       14.8451328867
  C        11.9941271413        8.4562156749       22.1992796939
  N        12.0301581895        7.0428787489       22.2177204630
  O        12.7348948633        5.3105106203       20.8327023093
  S        11.1075031859        9.1954366361       23.5420448047
  C        11.7038339605        6.2511066326       23.4199176940
  H        11.4362039866        5.3461468029       23.0142782060
  H        10.8084450956        6.5513786861       23.9671039836
  C        12.9701510182        5.9704396577       24.2933951564
  H        13.8096056825        5.8057361148       23.6313492276
  H        12.9583636652        5.0063477599       24.7962667599
  H        13.3157026587        6.8024279280       24.9477728452
