352
 i =    21100, time =    21100.000, E =        24.6049414426
  H        11.1648080741        7.4529621053       32.8478009771
  C        11.3121360023        6.5358022493       32.3286501610
  H        12.2206186508        6.7051797776       31.7048986134
  C        10.1492715195        6.1751281160       31.3891487785
  C        11.6958955162        5.5436739709       33.3935594251
  C        10.7541323254        5.6000708644       30.1202002565
  H         9.5453928869        5.3854951806       31.7863191198
  H         9.6152181105        7.0858353840       31.2534710199
  H        11.9756838036        4.6313663708       32.8948990342
  H        12.4662335285        5.8062738688       34.0807969808
  H        10.8984381627        5.2634021606       34.0462709064
  C         9.7698916199        5.6634547172       28.9731962133
  H        11.1498491369        4.5802258795       30.3602293190
  H        11.5498233710        6.2301195627       29.7626157310
  C        10.4467007234        5.4713642051       27.6331424287
  H         9.0581138779        4.8304629045       29.1677721189
  H         9.2432313044        6.5731806138       28.8687003935
  C         9.6674457142        4.8800782542       26.5122928119
  H        11.3976837168        4.9520161724       27.9078291052
  H        10.7516803487        6.4707097738       27.3350396656
  C         8.4976717340        5.7440604189       25.9900577211
  H        10.2831673920        4.7611653865       25.6327004160
  H         9.2825121352        3.8643941079       26.8843253070
  C         7.2735912254        5.0102954738       25.3775773563
  H         8.1032714581        6.5000742206       26.6683778564
  H         8.8878901463        6.2647081625       25.1186602516
  C         6.9377147033        3.6439754376       26.1089758584
  C         7.6319665629        4.1882621699       24.1005006207
  C         6.0298735668        5.9021293781       25.1681568328
  C         7.1241539618        2.5428077950       25.3147948477
  C         6.4346804874        3.3116737005       27.3790150893
  C         7.5673632548        2.8305323348       24.0514836981
  C         7.9822788525        4.7668977838       22.9015732985
  H         6.3067957230        6.6953648505       24.5305440301
  H         5.7272061170        6.3986827798       26.1036702233
  C         4.7975876333        5.2267792677       24.5567356446
  S         6.6217017919        1.0413775275       26.1119787015
  C         6.2758958045        1.9311411140       27.5299494803
  H         6.2184006387        4.1061907837       28.0903436296
  C         7.9934581537        2.1674589549       22.9274754836
  H         7.9472874599        5.8125635265       22.8287030259
  C         8.1993005694        4.1300360832       21.7047796338
  H         4.9321797458        5.1376275494       23.4877930777
  H         4.5882347222        4.1975695225       24.8715391473
  C         3.5183306158        6.0862459579       24.5001799662
  C         5.8233630264        1.2334653383       28.7880436984
  C         8.3769738392        2.7864582475       21.6987917112
  H         7.9814591921        1.0786280738       22.8558335901
  C         8.6680419187        4.4928791288       20.4817300730
  H         2.7776950424        5.7063546767       23.7746040664
  H         3.7119273585        7.0698460136       24.0807526593
  C         2.7956990808        6.1157999089       25.8139332127
  C         5.7657522489       -0.2014266317       29.0419971443
  C         5.3290170959        2.0435933106       29.9032981950
  C         8.7972055470        2.0467748552       20.5006170661
  C         9.0789518239        3.3796764964       19.7554874475
  S         8.9349858469        6.0265558881       19.7226215008
  H         2.1008142741        6.9314867339       25.5941433331
  H         3.4212437270        6.4823917949       26.6070863290
  C         2.1216456251        4.7470507336       26.0696153861
  N         5.9652269093       -1.2602714543       28.1261805952
  C         5.4262677251       -0.7537170829       30.2458888401
  C         4.9984488275        1.4426677655       31.1096643398
  H         5.3814336993        3.0854956140       29.8934794013
  C         7.6665007570        1.1941018024       19.8005764349
  C        10.0930532563        1.2621848964       20.7657125205
  C         9.4849338616        3.7992896896       18.4615099077
  C         9.4436757478        5.1835145715       18.2798553212
  H         1.6036496918        4.2780559578       25.2445208655
  H         2.9962436662        4.2221788588       26.3919999442
  C         1.2021635003        4.8916447237       27.2040809545
  S         5.8855713858       -2.7214092929       28.8358039182
  N         5.4483368979       -2.1636720049       30.3117438308
  C         5.1302077818       -0.0004636382       31.3599722521
  H         4.7936061134        2.1029371525       31.9322169430
  H         7.2524694708        0.4933817450       20.5743992023
  H         8.0929621750        0.5770192853       18.9872667118
  C         6.4471054450        1.9575743514       19.1127956460
  H        10.2781714500        0.6191837924       19.9190895938
  H        10.0362212654        0.6519957967       21.6811123578
  C        11.3629247222        2.1307425605       20.8775804974
  H         9.6501910150        3.0369786252       17.7248217024
  C         9.7175473909        5.9388605584       16.9929632640
  H         0.4739697652        4.0181604902       27.0838430308
  H         0.5304641789        5.7772372443       27.0614435835
  C         2.0447561564        5.0429678439       28.5343993749
  C         4.8470229747       -0.6395861037       32.6262515412
  H         6.8464557504        2.2741416890       18.1415627938
  H         6.1578345120        2.7879177107       19.7252172148
  C         5.2491965543        1.1033240687       18.8804792680
  H        11.2890906283        2.7151579068       21.8000250848
  H        11.6220806905        2.7551962209       20.0956097750
  C        12.6923912601        1.3373966382       20.9198112381
  C         9.7962549377        7.3293877261       16.8011966599
  C        10.1630958835        5.0907767106       15.8910305273
  H         2.7201247147        4.2284635418       28.7581122220
  H         2.7065892071        5.8956089705       28.4993042262
  C         1.1547360487        5.1183812266       29.7279419848
  H         4.8640391709       -1.7434406731       32.5707688813
  C         4.5626142620       -0.1811167050       33.8926274718
  H         4.9500882288        0.6029137981       19.7818830950
  H         5.5100665658        0.3159330125       18.1405330067
  C         4.0940881213        1.8714041293       18.3032704570
  H        12.6222325525        0.5334984691       21.7068296624
  H        12.6232213251        0.7727190699       20.0348462806
  C        14.0870042767        2.0566872262       20.8749597730
  N         9.6480057258        8.3404526375       17.7457440392
  C        10.1533632327        7.8641101700       15.5948909254
  C        10.5376569785        5.6354089716       14.6415602706
  H        10.1235101419        4.0385625994       15.9086963353
  H         0.1125120393        5.5032531966       29.6230289698
  H         1.0893053798        4.1567989939       29.9981224245
  H         1.5912362967        5.6903865305       30.5271255398
  S         4.3161947715        1.3874796621       34.4716364863
  C         4.4091258485       -1.2640334261       34.8881990865
  H         3.9381834768        2.6349917552       19.0340806732
  H         4.4076100116        2.4045611106       17.2976839244
  C         2.7370012566        1.2220644543       18.1997050496
  H        14.0782159048        2.7706014034       20.1136682385
  H        14.8624782297        1.3577510384       20.5742559424
  C        14.4023999440        2.6919376445       22.2534977882
  S         9.7810911104        9.8150653470       17.1308537352
  N        10.1113775424        9.2672719639       15.6111932651
  C        10.4347156817        7.1055682754       14.4817086748
  H        10.7530684435        4.9189589928       13.8783357036
  C         4.2097629655        0.5980188954       36.0488695176
  N         4.1170031750       -0.7065940158       36.0499820201
  O         4.6320221188       -2.4700862398       34.6815771762
  H         1.9643790991        1.9846347609       17.8903784690
  H         2.5040177010        0.8519368788       19.2260828685
  C         2.6866991682        0.0048643781       17.3016403937
  H        15.0216607725        3.5768547309       22.2210971556
  H        13.5043714658        2.9892039112       22.7607576071
  C        15.0568730352        1.6164935833       23.1263275586
  C        10.7791665525        7.7501305349       13.2704641829
  S         3.9458407893        1.3999601068       37.5959633075
  C         3.9521439216       -1.6016769250       37.2494850324
  H         2.1407082111        0.1996905033       16.4630892819
  H         3.6852672923       -0.3235897678       16.8911024580
  C         2.1058153237       -1.1461496983       18.0950375615
  H        15.3553955939        0.7821298601       22.5044223670
  H        14.4162981149        1.1856992453       23.9187031520
  C        16.3995493783        2.0731376665       23.7196606564
  H        10.5357943344        8.7778484068       13.3241978068
  C        11.4474703115        7.3666801966       12.1366850516
  H         3.3514325808       -1.1619523343       37.9804587513
  H         3.3596976632       -2.5047797314       36.9455491005
  C         5.3662386080       -1.8344481863       37.8406740184
  H         1.1088711459       -0.8772230398       18.3456183897
  H         2.5372391988       -1.2860257526       19.0754296588
  C         2.0378307005       -2.4285222452       17.2761802977
  H        16.2075769945        3.0701004218       24.1324567675
  H        16.6042200402        1.4125337822       24.5598289454
  C        17.5181536947        2.1509849522       22.5940488502
  S        12.1354475443        5.8929404630       11.7977246087
  C        11.5060595560        8.4485799857       11.0716253448
  H         5.5306719566       -1.1204053831       38.6350474489
  H         5.6379598433       -2.8160195819       38.2071103749
  H         6.0872870155       -1.7411786844       37.0340816494
  H         1.4480860584       -2.3415421404       16.3555850692
  H         1.6201923601       -3.1856236830       17.9564453297
  H         3.0058227793       -2.6576051226       16.9067140786
  H        18.5114479579        2.1887332104       23.0235623040
  H        17.5384796662        3.1142213092       22.0325350500
  H        17.3803478626        1.2949474557       21.9682770888
  C        12.6144986496        6.6530754681       10.2811641994
  N        12.2849729912        7.9497595478       10.1426432919
  O        11.1246677367        9.6389682961       11.2203412951
  S        13.8277658552        5.9395902121        9.2405693663
  C        12.5377601594        8.6188534955        8.8970808988
  H        12.4833927443        9.7262660415        9.1453813941
  H        13.5282923403        8.5168551916        8.5378678704
  C        11.3981979751        8.2909049957        7.8648140875
  H        11.6709547222        8.6829790661        6.8571089956
  H        11.1293970911        7.2332724456        7.7906805411
  H        10.5561739705        8.8483169731        8.1163670745
  H        20.9097503069       11.4240389253        2.9706304863
  C        21.5515870389       10.5539838015        3.1206316678
  H        20.8535215311        9.6975247624        3.1505038461
  C        22.3420709250       10.5845826789        4.4275184946
  C        22.3670360719       10.3644845282        1.8210609183
  C        21.4126957868       10.7605357523        5.6503138495
  H        22.8570797035        9.6554984073        4.6016970075
  H        22.9610702699       11.4628443303        4.3374465121
  H        22.3812981146        9.3363284555        1.5060897600
  H        23.4010377426       10.8063804170        1.8697904065
  H        21.8359904084       10.9109166538        1.0541949046
  C        20.8213144600        9.4613474470        6.2986857964
  H        21.9968015388       11.2380091340        6.4682300738
  H        20.7045394188       11.6045195690        5.4733056213
  C        20.1879000552        9.6977133338        7.6892917667
  H        21.6046274912        8.7248200387        6.5888334020
  H        20.1158980930        8.9624542441        5.6340691008
  C        18.8745064683       10.5820880029        7.6560854424
  H        20.9005976441       10.2911791710        8.3647666245
  H        20.0123449116        8.6703788078        8.1220920898
  C        17.6575806850        9.9355364663        7.0729643480
  H        18.6879311616       10.9285958492        8.6165102761
  H        19.0679790308       11.5008696467        7.1033645781
  C        16.4224523727       10.8437540075        6.8945858295
  H        17.4015845274        9.0929330030        7.6545181609
  H        17.9481145295        9.4766519292        6.1442089812
  C        16.6892686251       12.2005968915        6.2587901399
  C        16.0055409923       11.5010933462        8.1793336380
  C        15.2126068339       10.1604353027        6.1274432881
  C        16.4575758921       13.2865025453        7.1356434059
  C        17.1158738868       12.6145444654        4.9672546355
  C        15.9912503763       12.8144370350        8.3329912857
  C        15.5770558999       10.7404509867        9.2900722426
  H        15.5365710503        9.7224886255        5.1964816023
  H        14.9008802497        9.3362166696        6.7099648901
  C        13.9856658220       11.0727463214        5.9985544219
  S        16.9504764737       14.8051627959        6.3942509267
  C        17.4824851139       13.9262683329        4.9313666833
  H        17.3070170539       11.8613989934        4.1833161758
  C        15.6584945094       13.3426924443        9.5135688235
  H        15.5839871513        9.6438795443        9.1327794184
  C        15.1608550581       11.2921534088       10.4415439606
  H        14.3679087336       11.8704317958        5.4393109766
  H        13.4887820975       11.3308663166        6.9543100647
  C        12.9019784715       10.4366634365        5.0919407630
  C        18.0708298636       14.5729581987        3.7160460997
  C        15.2857557445       12.6193296191       10.6323586314
  H        15.5945530672       14.3830387168        9.5773468974
  C        14.8207839551       10.7902138729       11.6334635331
  H        11.9396538214       10.7339984522        5.3854314220
  H        12.8432651963        9.3719310737        5.2242028091
  C        13.0819927111       10.8245660746        3.6521955219
  C        18.0664260767       15.9861204180        3.4764685667
  C        18.4748322905       13.7643107249        2.5548614253
  C        14.8464109605       13.2103549501       11.8992685498
  C        14.6226845818       11.8540581989       12.5162885688
  S        14.5785830723        9.2488207338       12.4680815813
  H        14.0041127507       11.3264915048        3.3436068024
  H        12.2602332621       11.4845398886        3.2843797230
  C        12.8322995127        9.6295718006        2.7780323399
  N        17.8346996674       17.0168771521        4.4116901379
  C        18.3068361591       16.6177296421        2.2444749573
  C        18.9527410560       14.3138426929        1.3777737783
  H        18.4568733759       12.7334423376        2.7300094852
  C        13.5161730135       14.0115598029       11.7052844734
  C        15.9052251489       14.0666353474       12.7631970735
  C        14.2217942771       11.4069944425       13.7955356534
  C        14.3324143866       10.0495769261       13.9776150082
  H        13.8127870214        9.2047800932        2.5594536841
  H        12.2195342014        8.9331234984        3.3674787543
  C        12.2184454935        9.9604132010        1.4070991811
  S        17.7341713539       18.4409407808        3.7490231764
  N        18.0683735085       17.9915215295        2.1960753414
  C        18.7698090156       15.8176401454        1.1196405842
  H        19.3534661460       13.6958286187        0.6498672666
  H        13.6463424252       14.6780569613       10.8529604064
  H        13.2942846311       14.7060171517       12.5038866622
  C        12.2530824992       13.1564992121       11.3202918056
  H        16.0929158619       14.9920360459       12.1855258157
  H        15.4135454048       14.3727992574       13.7315807502
  C        17.2411774888       13.3083766583       13.0681879774
  H        14.0757587410       12.2190443061       14.5418634102
  C        13.9032286165        9.2860775112       15.2109153988
  H        11.5171265312       10.7777706494        1.5443924502
  H        11.5427903433        9.1235803277        1.2317396711
  C        13.1697702741       10.2626838134        0.2457388355
  C        19.0031573376       16.4784404794       -0.1323328951
  H        12.3738980319       12.4121683373       10.5387248920
  H        11.9295118543       12.6583082420       12.2047243033
  C        11.0883349259       13.9953024090       10.9380136514
  H        17.6602373644       13.1822742919       12.0956773130
  H        17.0507805553       12.2963615438       13.4539633900
  C        18.0893586771       13.9288055824       14.1291424880
  C        13.9438177661        7.8933383711       15.4158783676
  C        13.4821069423       10.0563591594       16.4009876704
  H        13.8605487802       10.9869589788        0.5326154858
  H        13.8219026768        9.3849060874        0.1861525180
  C        12.4777985279       10.6329090155       -1.0979210920
  H        19.0118276074       17.5217319274       -0.0857136007
  C        19.2969585178       15.9719120130       -1.3876271800
  H        11.3877011645       14.4432702906        9.9704639691
  H        10.9009088912       14.7877257597       11.6023520449
  C         9.7712981386       13.2435454904       10.6601086643
  H        17.8847443682       15.0487281855       14.1225474130
  H        17.7714127434       13.5107942870       15.0659627501
  C        19.4923484402       13.7162863173       13.9989317071
  N        14.2414439295        6.9386905785       14.4188603892
  C        13.5875764966        7.2319053062       16.6064935348
  C        13.1368484679        9.4132113359       17.6057768825
  H        13.4453641095       11.1345411424       16.3552692139
  H        11.6518060603       11.3728851189       -0.9303047206
  H        11.9751852498        9.7215830568       -1.5566574535
  H        13.2144982542       11.0265235254       -1.7663020069
  S        19.4614916567       14.2959184111       -1.8588271833
  C        19.3363952925       16.9530593967       -2.4930854450
  H        10.0506074927       12.3880642152       10.0492949208
  H         9.3837016935       12.8022242407       11.6090142745
  C         8.9087785029       14.1310615371        9.8448443754
  H        19.6941523510       13.1947965454       13.0985005085
  H        19.6856514253       13.1314374562       14.9192302218
  C        20.3669446972       14.9703914374       13.9300172855
  S        14.1264510748        5.4149898937       15.0310413557
  N        13.8709456823        5.8549716472       16.6303257480
  C        13.1924653582        7.9498604207       17.7533750947
  H        12.9529467804       10.0532447280       18.4924272850
  C        19.9434962132       14.9039739953       -3.4344713472
  N        19.6899767127       16.2456787610       -3.5743056057
  O        19.3372377607       18.1753082082       -2.5109427159
  H         8.5920001484       14.9831168545       10.3837751267
  H         9.4175098020       14.6471312380        9.1010793281
  C         7.8874385825       13.2438043892        9.1845972829
  H        21.3874909471       14.6817532529       13.7588834182
  H        20.0994394535       15.7133715552       13.0779038006
  C        20.2932582149       15.8662593251       15.1738668685
  C        13.0027852015        7.1379306759       18.8868593591
  S        20.4469582588       13.9409684796       -4.7370382098
  C        19.9274483307       16.9509836620       -4.8968230333
  H         8.2788095880       12.7595584108        8.2460832700
  H         7.8543296561       12.3426046312        9.7528543864
  C         6.5025385936       13.8966144001        9.0356141962
  H        20.3933505309       15.2871716341       16.0957840504
  H        19.3283161156       16.3321626854       15.1337565754
  C        21.3150724488       17.0251396668       15.3957980070
  H        12.9432143664        6.1505030792       18.7832763832
  C        12.5924731000        7.5270538604       20.1453593162
  H        20.4776798554       16.2376215253       -5.4406879345
  H        20.4883520033       17.8824114706       -4.8221618997
  C        18.5284911043       17.2089858315       -5.5014988045
  H         6.0263234312       13.3935432119        8.2286882707
  H         6.4941250344       14.9263988485        8.8468603602
  C         5.6868888393       13.6220557334       10.3711267917
  H        20.9166581757       17.4737541396       16.3489991185
  H        22.2428517391       16.5687501372       15.5285224290
  C        21.4320842927       18.0505054063       14.2404646864
  S        12.2194394507        9.0433001898       20.6789160795
  C        12.3667401266        6.5137374776       21.2326313509
  H        18.0318768474       16.3212158260       -5.7975346313
  H        18.6071277359       17.8545278157       -6.3330466081
  H        17.7905013119       17.6780926165       -4.8254892027
  H         6.2144990442       13.9648284064       11.2654667417
  H         4.7381553586       14.1927863088       10.3313763511
  H         5.4984826894       12.5345154253       10.5298069787
  H        21.9600092446       18.8979411136       14.5096132526
  H        22.1120075900       17.6861808665       13.5159902770
  H        20.4902881561       18.2435753644       13.6634415658
  C        11.6692184032        8.3916528486       22.1989137305
  N        11.6880246087        7.0748296160       22.3049061975
  O        12.5113907771        5.2914787817       21.0442351075
  S        11.2703974109        9.2494673338       23.6447744205
  C        11.4363193971        6.2368282048       23.4653408881
  H        11.2437678592        5.1993361858       23.1802708362
  H        10.6718141681        6.5551250918       24.1053060526
  C        12.6591068500        6.0997405840       24.3532827556
  H        12.9363841386        5.0144361591       24.4805843006
  H        12.5648878668        6.6228615147       25.3013065448
  H        13.5527905255        6.6109641835       23.9194841587
