352
 i =    89300, time =    89300.000, E =        25.0318336202
  H         9.3080423096        6.7821998703       31.0771304093
  C        10.3094748938        6.8386226321       31.5084062510
  H        10.4631064913        7.8871120252       31.8334567030
  C        11.4038167203        6.3949426886       30.5826504938
  C        10.3712115280        6.1113127797       32.8440985429
  C        11.0897958114        5.0820629066       29.7681920901
  H        11.5800630225        7.2260603417       29.8475849627
  H        12.2602346287        6.1538665785       31.2188297011
  H        10.2755804286        5.0240483724       32.7951929329
  H        11.3115627556        6.2644515577       33.3131321276
  H         9.6798819822        6.4274225996       33.5205995777
  C        10.0341060194        5.3488897679       28.7093897390
  H        10.7195083076        4.2253077511       30.3366174543
  H        11.9706987774        4.6592932603       29.2812835119
  C        10.5447861521        5.3818124032       27.2882566598
  H         9.2336001129        4.6769547315       28.8157495845
  H         9.4711609264        6.2817628480       28.9555721476
  C         9.5533212902        4.7906140211       26.3290565689
  H        11.4758437037        4.9331532392       27.1697261309
  H        10.6515773105        6.4085434447       27.1178306428
  C         8.3833184987        5.7821978225       26.0296841857
  H        10.1320478502        4.3407102249       25.5168306074
  H         9.0643997072        3.9359705608       26.7911682897
  C         7.1909888449        5.1402945124       25.2819158928
  H         8.1279720545        6.2758802765       26.9991731156
  H         8.8148378308        6.5572534773       25.4349984730
  C         6.7426918009        3.8583770582       26.0210458867
  C         7.5925624959        4.3874477076       23.9881180554
  C         6.0179128459        6.1591066842       24.8924549168
  C         6.9107867340        2.7354945942       25.1898322409
  C         6.1992843337        3.3989412381       27.2560299884
  C         7.4810145141        3.0253988006       23.9333779096
  C         8.0860187856        4.9895407615       22.8205270830
  H         5.3949165859        5.9546887998       24.0998606951
  H         6.6755109668        6.9950180575       24.6048966580
  C         5.1437078468        6.4912504420       26.0866771038
  S         6.4508052347        1.2191537958       25.9963574362
  C         6.2520596181        2.0315083065       27.4381168085
  H         6.0625399947        4.0925624891       28.0915426344
  C         7.8058218369        2.3712265152       22.8080650613
  H         8.2785301236        6.0247436493       22.9556898131
  C         8.4693317164        4.2626905417       21.7212646059
  H         5.5910725678        6.0026650013       26.9514159225
  H         5.3186009720        7.5467065158       26.3972484598
  C         3.7035315130        5.8917605147       25.9973375027
  C         5.7679829326        1.3455941403       28.6958253866
  C         8.3941724385        2.9347933376       21.6869663512
  H         7.6333019914        1.2960222890       22.7156589758
  C         8.9502522014        4.5830009596       20.4772382944
  H         3.6982210175        4.8193983491       25.7359536881
  H         3.1263449383        6.3558602870       25.2116965787
  C         2.9471599755        6.0505394130       27.3215483285
  C         5.6565633410       -0.0854299430       28.8674660567
  C         5.7942424421        2.1505722981       29.9561693143
  C         8.8020155934        2.1886898044       20.4456461871
  C         9.1351927677        3.4852365720       19.6928296954
  S         9.2323049799        6.1025015536       19.7598344151
  H         2.2895149282        6.8161665453       27.2540553106
  H         3.6521041494        6.3535243046       28.0693989746
  C         2.1914852799        4.8038954935       27.7213633960
  N         6.1261338060       -0.9469910365       27.8932593346
  C         5.4836063753       -0.6397561579       30.0993485509
  C         5.3495848976        1.6392621267       31.1535126293
  H         6.0690525500        3.1385145353       29.9452045329
  C         7.7403366355        1.2706672634       19.7085182179
  C        10.1011321987        1.3667418301       20.5986528087
  C         9.6794746984        3.8750409886       18.4731504164
  C         9.6190930956        5.2120494095       18.3185124610
  H         1.5602475151        4.5881240449       26.8446522043
  H         2.8930181561        4.0193333997       28.0137213583
  C         1.1907092508        4.9524820747       28.8268749191
  S         6.0175976381       -2.4339052588       28.5391393094
  N         5.6075851461       -2.0349818377       30.0412774201
  C         5.1620601907        0.1443704508       31.2842644600
  H         5.4205296567        2.2127885438       32.0885096892
  H         7.4286844893        0.4359369610       20.3022837636
  H         8.3838168747        1.0362355914       18.8636758676
  C         6.4992025811        2.0993078625       19.2613476761
  H        10.4535757359        0.9278407515       19.6857427967
  H         9.9050785429        0.6152191605       21.3273934501
  C        11.1972829858        2.2047830666       21.0962279417
  H         9.6991171808        3.1090694011       17.7020557758
  C         9.9560461285        5.8808562558       16.9491567930
  H         0.6210404837        3.9901717491       28.8475930890
  H         0.5103881146        5.8180909532       28.5653106241
  C         1.9093234505        5.2718866719       30.1918683882
  C         4.8387192714       -0.5981079190       32.4897626832
  H         6.7470605119        2.9520248100       18.6900195784
  H         6.0687209772        2.5195556943       20.1242828248
  C         5.5008733362        1.1463780665       18.6235863326
  H        10.9521229626        2.9169611359       21.8401768864
  H        11.4859862477        2.8408329281       20.2113755262
  C        12.3944578626        1.4554202209       21.7724880057
  C        10.0320732603        7.2552504175       16.7977145915
  C        10.1285266995        5.1804001197       15.7019823597
  H         2.1983801390        6.3262255292       30.4296038729
  H         1.1435967554        5.1053534486       30.9947295775
  C         3.1959637393        4.4240420344       30.4692044233
  H         5.1082993727       -1.6161792965       32.5573317020
  C         4.4927490907       -0.1260441730       33.6872652013
  H         5.1855462648        0.5635797096       19.4674738335
  H         5.9511903216        0.5588049075       17.8521449605
  C         4.4369598241        2.0026196346       18.0059316090
  H        12.7831139135        2.0326044493       22.6220590046
  H        12.0804976895        0.4417008329       22.0780122067
  C        13.5806855585        1.3431103647       20.7282079865
  N         9.9790969912        8.2623202494       17.7934618827
  C        10.2937516880        7.9417939685       15.5790967174
  C        10.3422203547        5.7578050376       14.4817711838
  H        10.1481704659        4.1097215791       15.7420026512
  H         3.3702928732        4.3666945413       31.5625238317
  H         3.1805586632        3.3970340103       30.1161808248
  H         3.9080451257        4.8743266181       29.8666232900
  S         4.0800454601        1.4456717314       34.2244905536
  C         4.5007392984       -1.0927957467       34.8753937397
  H         4.3497023801        2.8758351564       18.5490394089
  H         4.7047135142        2.3973530083       17.0093807296
  C         3.0921365924        1.2405198727       17.9439454099
  H        13.6238161846        2.2259857466       20.0924885296
  H        13.3316500442        0.5331901907       20.1038497448
  C        14.8913503430        1.1660582306       21.4517394030
  S         9.9268727074        9.7465339583       17.1297059979
  N        10.2601245306        9.3284264619       15.6469402801
  C        10.4519442762        7.1788016513       14.4219586871
  H        10.4174085956        5.0712481406       13.5928127555
  C         4.0086473446        0.8494400307       35.9382727040
  N         4.1572931450       -0.4970108286       36.0454705364
  O         4.7319895593       -2.2847440407       34.7636750264
  H         2.2552292459        1.9045967814       17.8994809461
  H         3.0864403759        0.6076964163       18.8368090283
  C         2.9665243576        0.4572646887       16.6684630470
  H        14.7962208971        0.3385263169       22.1632298930
  H        15.5848347602        1.0079245155       20.6481636138
  C        15.4580198891        2.3860782298       22.2961662692
  C        10.7611134402        7.8615961698       13.2036747225
  S         3.4404823677        1.8413612759       37.2512374768
  C         4.1501226088       -1.1002863242       37.3582630382
  H         2.1529071295        0.7458114838       16.0569477882
  H         3.8013561857        0.6818818218       16.0563624900
  C         2.9781309740       -1.0154240207       16.8338654413
  H        14.8152274469        2.5863989195       23.1453334201
  H        15.3865231761        3.3120230655       21.7127127274
  C        16.8564422784        2.0933242542       22.8285351880
  H        10.4313563229        8.8892376075       13.2110711283
  C        11.2998693761        7.5895821826       11.9660487097
  H         3.4069892425       -0.6259101420       38.0280772746
  H         3.8540742321       -2.1148398251       37.1411774196
  C         5.5803767131       -1.0448252761       37.9210608121
  H         3.6406813540       -1.4148193401       17.5631491148
  H         3.2129959963       -1.5154098526       15.9036865012
  C         1.7075482605       -1.5830660839       17.4633105680
  H        17.1759437682        3.0411340045       23.3039351447
  H        16.8671278049        1.2314369528       23.5142174800
  C        17.9863347519        1.9684320306       21.8045810622
  S        11.8542094924        6.0729365199       11.3781970232
  C        11.3137721965        8.6920239919       10.9294356760
  H         5.6042676284       -1.4920689333       38.8971631756
  H         6.1864273059       -1.7258972586       37.3939336102
  H         5.9762967568       -0.0697949715       37.7633243238
  H         0.8102763677       -1.0182080348       17.0987555560
  H         1.7623009124       -1.5054429142       18.5806804915
  H         1.6474257259       -2.6944206360       17.4130493437
  H        17.9157940799        2.6592582053       20.9586532845
  H        18.1232966825        1.0578958642       21.3579898214
  H        19.0019299656        2.1214895535       22.1979173764
  C        11.9398416481        6.8464461949        9.7643070115
  N        11.8642271626        8.2035563256        9.7653282492
  O        10.9452340403        9.8801318331       11.1361253372
  S        12.4247313762        6.0226663706        8.3004953843
  C        11.8854817864        9.0757378384        8.5472440282
  H        12.0765274813       10.0654995208        8.8063957466
  H        12.5799092237        8.7859942723        7.8799621411
  C        10.5174087595        9.0250956652        7.8271397157
  H        10.3232257310       10.0005391529        7.4555889106
  H        10.5335955257        8.2608782372        7.0054915794
  H         9.7223551746        8.8985472859        8.5402610818
  H        21.3753760820       10.9905893242        2.5217524824
  C        22.0137803955       10.0995853446        2.6853749490
  H        21.3820157096        9.2601249439        2.6460659117
  C        22.7851707609       10.3022618333        3.9976597257
  C        22.7998569792       10.1388092691        1.3689409589
  C        21.8599652615       10.3065426553        5.2081343419
  H        23.5376234051        9.5430713975        4.2076218621
  H        23.2699091100       11.2481374196        3.7784054224
  H        23.6068782914       10.8142184736        1.3870919643
  H        22.1904049576       10.4206685676        0.5267971961
  H        23.1840448561        9.0797194930        1.2407111991
  C        21.2409657590        8.9933827915        5.7424153300
  H        22.4030216226       10.8064471805        6.0236358190
  H        21.1285143657       11.0100907600        5.0825507562
  C        20.0345141866        9.1400376517        6.7024872981
  H        22.0349361173        8.5400434978        6.3179340109
  H        21.0563613933        8.3526894530        4.9186127891
  C        18.6289858664        9.3259748076        6.0462426770
  H        20.3095580895        9.9508980199        7.3149559496
  H        19.8615213476        8.2876657450        7.2691168605
  C        17.4579891954        9.5025292905        7.0177219657
  H        18.6945227757       10.2989831576        5.5201076081
  H        18.5034153884        8.4557757696        5.3909082719
  C        16.3260167434       10.5249012216        6.7107111362
  H        17.9393900543        9.7204293097        7.9010172496
  H        16.9848188868        8.5500464668        7.2594320318
  C        16.7508513572       11.9000695972        6.0833948504
  C        15.9308258005       11.2452271124        7.9311359195
  C        15.1581753690        9.9350981566        5.9133202734
  C        16.6192258912       12.9791434967        6.9123451327
  C        17.1606271004       12.3381093677        4.8182170805
  C        16.0706297275       12.5846075652        8.1204572685
  C        15.4341769920       10.5490289173        9.0317298220
  H        15.5802634961        9.4131675582        5.0352718292
  H        14.5471382396        9.3292470746        6.5741646238
  C        14.1633164387       10.9921685787        5.2983133144
  S        17.0289468487       14.5033382326        6.1820436206
  C        17.3718149785       13.7282178379        4.6883365631
  H        17.2290475559       11.5954890784        4.0092193863
  C        15.7837684390       13.1697212028        9.3203221470
  H        15.4231570646        9.5017647167        8.9972729015
  C        15.2337441772       11.1089585293       10.2827138482
  H        14.6346989962       11.4844748707        4.4675344184
  H        13.9692141948       11.7125989163        6.1164625191
  C        12.9139762590       10.2531283776        4.8148105474
  C        18.0195325424       14.4003622185        3.4863628789
  C        15.3467742004       12.4427989968       10.4723455952
  H        16.0047866279       14.2121704364        9.4203675344
  C        14.9585973298       10.6799877218       11.5750067851
  H        12.0671417735       10.6383410701        5.3555721120
  H        13.1057926912        9.2226035378        5.1203040095
  C        12.5864308452       10.5119548530        3.3530594972
  C        18.0899089180       15.8013561270        3.1777506505
  C        18.5895690007       13.5020294448        2.4378182288
  C        14.9753983028       13.1344190195       11.8000854638
  C        14.8454662072       11.7340403969       12.4739366082
  S        14.5776847725        9.1499322630       12.3901145387
  H        12.7375905564       11.5746760836        3.2066321087
  H        11.5126729917       10.5071683891        3.1241186073
  C        13.4244935906        9.4914550688        2.4396870764
  N        17.7247283040       16.8155539448        3.9958983908
  C        18.4424025236       16.2965462370        1.9301143589
  C        19.0022400904       13.9798410514        1.1228107999
  H        18.6921760963       12.4475148400        2.6182148131
  C        13.6600195902       13.9771506513       11.7649860080
  C        16.0647735205       14.0401036177       12.4825921664
  C        14.4078184310       11.3935574660       13.7393958529
  C        14.1626721093       10.0501862433       13.8360449313
  H        14.3456900392        9.2556492597        2.8100681928
  H        12.8846118850        8.5761057756        2.2616581205
  C        13.6334843375       10.0838313953        1.0178737536
  S        17.8850277077       18.2695602555        3.2577243358
  N        18.2848086956       17.7014814827        1.7572970310
  C        18.8463333247       15.4562120928        0.8557323259
  H        19.3194218174       13.2381775194        0.3752483322
  H        13.7917204406       14.7857772298       11.0982596295
  H        13.4791560632       14.4755006881       12.7355832260
  C        12.4134475318       13.0535456790       11.4365242604
  H        16.6621428325       14.4094864704       11.7090395613
  H        15.6089138753       14.8558396976       13.0399551322
  C        16.8750823803       13.3634832478       13.5631421377
  H        14.1852306342       12.1028259202       14.4820274466
  C        13.6937965330        9.2974167934       14.9976846854
  H        14.5214253306        9.6261328045        0.5322725906
  H        13.9442311355       11.1231787150        1.0015257943
  C        12.3497968371        9.8396375125        0.1714900927
  C        19.1044908840       16.0860625723       -0.4468408959
  H        12.4943839873       12.7058016977       10.4049646303
  H        12.3648629075       12.1063062867       11.9871652302
  C        11.0905980657       13.8135221828       11.7085069079
  H        17.3061693244       12.3447570532       13.2134607778
  H        16.2105683434       13.0990630743       14.4274632442
  C        17.9492652026       14.3775486408       13.8909407316
  C        13.6229502354        7.8773072460       15.1129501771
  C        13.4015731354        9.9887875146       16.3070819528
  H        11.9760015078        8.8331251871        0.2531456434
  H        11.5631308496       10.4365902148        0.6039984035
  C        12.7818755125       10.0523652773       -1.2725109155
  H        18.9531142462       17.0879381711       -0.4211869272
  C        19.3980804281       15.5702177482       -1.6817242153
  H        11.3705743803       14.7842405906       12.1770819238
  H        10.6497599841       13.2711273974       12.5185538592
  C        10.1848497864       13.9973878420       10.4845171548
  H        18.2654804435       14.6816597138       12.9024426265
  H        17.5664557844       15.1773421341       14.4594914837
  C        19.1816407712       13.7100018770       14.6005677289
  N        13.7914841398        7.0313168680       14.0314733914
  C        13.3684699602        7.1526652326       16.2534180644
  C        13.2342767643        9.2403275684       17.4568448312
  H        13.3903434805       11.0643955211       16.2738643407
  H        11.9580440185       10.3611630698       -1.9368408326
  H        13.2930437853        9.2042911135       -1.7500475028
  H        13.3743640808       10.9347614160       -1.3734618135
  S        19.6745185529       13.9373454087       -2.1565579011
  C        19.4071011652       16.4869509152       -2.8009986148
  H         9.2906072084       14.5708818861       10.8347726715
  H        10.6355014687       14.7304503584        9.7523480553
  C         9.8238729467       12.7386084852        9.7225581739
  H        19.7411357855       12.9926237827       13.9427023000
  H        18.7654765752       13.1605741528       15.4707905820
  C        20.2257982639       14.6752490633       15.0447964578
  S        13.7373694795        5.4502179505       14.5458731704
  N        13.3376622411        5.7583611084       16.1140779704
  C        13.0878828849        7.7338966820       17.4510865568
  H        13.2752194155        9.7661550469       18.4343781344
  C        20.0774450665       14.5501581085       -3.7110779667
  N        19.8404534884       15.8461871178       -3.9026884910
  O        19.3127952368       17.7388627081       -2.6275540250
  H        10.6857668110       12.6072314824        9.0950028249
  H         9.8243943639       11.8718823686       10.4450189370
  C         8.5816573189       13.0279356552        8.9353253619
  H        19.6336049438       15.4400914810       15.4836519111
  H        20.8574932727       14.1638255938       15.8577288428
  C        21.0663670606       15.2493850562       13.8625638971
  C        12.7913441971        6.9219111423       18.6514640477
  S        20.5496569160       13.5128657932       -4.9868345657
  C        19.8514384713       16.5239441419       -5.1924628900
  H         8.4923178401       14.0197386665        8.6019771067
  H         8.6350632302       12.4266333192        7.9948594854
  C         7.3511282496       12.5190596356        9.6392145417
  H        20.5775421728       15.3264931705       12.8297819880
  H        21.9356910772       14.5269947471       13.6553677316
  C        21.6248494302       16.6517138041       14.2150624906
  H        13.1910167362        5.8994078639       18.5642895913
  C        12.3518804918        7.3230457121       19.9174592181
  H        20.4233683690       16.0064076809       -5.9187334418
  H        20.3988039901       17.4303428713       -5.1379477821
  C        18.4776177533       16.7863266596       -5.5915563688
  H         7.3346206575       12.7192980465       10.6327142491
  H         7.2179371574       11.4964330312        9.5381218433
  C         6.1499469702       13.1980368985        8.9694817252
  H        22.5200250519       16.8642133616       13.6308097099
  H        20.9447161282       17.4018007458       13.9114608865
  C        22.0126868991       17.0865061022       15.6622274283
  S        11.8437627191        8.8638862275       20.3649248400
  C        12.3066448176        6.3041806650       20.9614821016
  H        17.8161091029       16.6989356311       -4.7104726287
  H        18.2081238693       16.0296736848       -6.2916487473
  H        18.4188450737       17.7388723874       -6.1687111101
  H         5.1613003898       12.7348018128        9.3125887428
  H         6.2192859256       14.2655368606        9.1672937722
  H         6.1468288042       13.1678617771        7.8789745371
  H        22.7407664742       17.9395678275       15.7740582147
  H        21.0573297318       17.4178218956       16.1599959335
  H        22.4051584879       16.2013187038       16.1925284400
  C        11.4752426871        8.2234870118       21.9319052818
  N        11.6628543570        6.8539568734       21.9764121184
  O        12.5630641625        5.1376898704       20.7840678098
  S        11.0605386987        9.0815978671       23.4180660389
  C        11.4960444607        6.1115397561       23.1569983784
  H        11.5107742702        5.1131215292       22.8577615806
  H        10.6095722837        6.4118533786       23.6784020595
  C        12.6996091628        6.1024443452       24.1040899619
  H        12.3406795580        6.3891764176       25.0878806352
  H        13.4650492298        6.8560631901       23.8971713502
  H        13.1562786743        5.1455295091       24.2549054911
