352
 i =    65700, time =    65700.000, E =        24.8824713037
  H        10.4135525613        4.8015446431       31.5178612268
  C        10.8112211285        5.7666903177       31.7492779008
  H         9.9601112519        6.2889428694       32.1730538721
  C        11.3953386818        6.6112796687       30.5674965086
  C        11.7945284371        5.5182040328       32.8998506401
  C        12.0978521198        5.7849128205       29.5258985889
  H        10.6000111105        7.1969274287       30.1695050997
  H        12.0589620766        7.3898721774       31.0448033996
  H        11.2431021246        5.1229926140       33.7214990553
  H        12.4799590554        4.7523552711       32.5013419134
  H        12.2510539872        6.3887719695       33.2639792525
  C        11.2391352025        5.0139711457       28.6338892162
  H        12.7738709185        5.1591880430       30.0442608167
  H        12.6656720936        6.4745221578       28.9158526148
  C        10.4451607017        5.9653618828       27.7216141903
  H        11.8287090283        4.3015863155       27.9899499747
  H        10.5459076967        4.3426917316       29.2086409045
  C         9.8179988142        5.2263801485       26.5973129351
  H        11.1763937198        6.7129289151       27.4474822294
  H         9.7003965236        6.4655524469       28.2870148117
  C         8.5149615838        5.9394454193       26.0778806726
  H        10.4605789036        5.1301202423       25.7578812379
  H         9.6083173064        4.2570884192       26.9183971266
  C         7.5151124518        5.0674832656       25.3587272675
  H         8.1059902543        6.3971491621       27.0596698779
  H         8.7401280594        6.7812016561       25.4607438865
  C         7.2744777056        3.7334851994       26.2160750339
  C         8.1358545453        4.3025336152       24.2327097507
  C         6.2422486647        5.7703291282       24.8203684007
  C         7.5331726065        2.6109123382       25.4872687401
  C         6.7358408434        3.4004363030       27.4930348887
  C         8.0510796944        2.9919289452       24.2505888360
  C         8.5793478668        4.9359362843       23.0169649345
  H         5.8836673325        5.1890943157       23.9989217868
  H         6.6028815510        6.7240984674       24.3874759400
  C         5.0326576818        6.0245525550       25.7845808703
  S         6.9756206942        1.1712160242       26.2350282057
  C         6.4992076008        2.0705364725       27.6667220519
  H         6.6596600695        4.2402505343       28.1550556951
  C         8.2400992799        2.3449690135       23.0709463232
  H         8.7603498580        5.9777869027       22.9934043651
  C         8.8260113505        4.3038054686       21.9102054619
  H         5.0494810556        5.0593536706       26.3617123336
  H         5.2837846781        6.7093032241       26.6190130887
  C         3.5875338339        6.2631682165       25.1864686186
  C         6.0586375540        1.3806021809       28.9174867048
  C         8.6510373347        2.9720697778       21.8799732517
  H         7.8620750116        1.3130644584       23.0644402155
  C         9.1442109894        4.6021535231       20.6545810978
  H         3.3450954300        5.5547578240       24.4621086400
  H         3.4789521796        7.1523981842       24.5511844499
  C         2.4473268477        6.3043735298       26.2907832612
  C         5.9106376240       -0.0605217019       29.1206353607
  C         5.8081450042        2.1283065171       30.1413462147
  C         8.9190696574        2.1892360182       20.6044969126
  C         9.3004671742        3.5016038160       19.8498762194
  S         9.4733133550        6.0708048291       19.8792396896
  H         1.6160751135        6.6064564752       25.6842664000
  H         2.5843594826        6.9869660156       27.1190880753
  C         2.1007996162        4.9218123054       26.8517257957
  N         6.0091285263       -0.9827515176       28.1081922695
  C         5.5347126427       -0.5974313756       30.3321097358
  C         5.4332910865        1.5983980111       31.3539440675
  H         5.7517088423        3.2081896078       30.1430449482
  C         7.6535209639        1.4487932094       20.0806203182
  C        10.1778850297        1.2423809657       20.7060773588
  C         9.7027335611        3.7994685753       18.5724146008
  C         9.8588220430        5.1496142236       18.4089230049
  H         1.5576469554        4.4175332101       26.1351762762
  H         3.0284989340        4.4216495279       27.0720457464
  C         1.1835365460        5.2583096161       28.0187060329
  S         5.8226196093       -2.4645627003       28.8282642827
  N         5.4822663084       -1.9873074158       30.3427658165
  C         5.4169138069        0.1840847524       31.5201774968
  H         5.2702128537        2.3640900728       32.0786335288
  H         7.2800546746        0.8955507127       20.8459350261
  H         7.8155172089        0.8432745875       19.2021176076
  C         6.5376907312        2.4101766088       19.6538297657
  H        10.1897793274        0.7331529940       19.6507783005
  H        10.0940605106        0.5327162188       21.5089652983
  C        11.5004280237        2.0338077223       20.9408715405
  H         9.7589920294        2.9801067239       17.8063512133
  C        10.3824406643        5.8659237231       17.2667226137
  H         0.4490642432        4.3528663398       28.0524070592
  H         0.6680977032        6.1961785328       27.8841604630
  C         1.9567126187        5.4035968066       29.2977779729
  C         5.1438094339       -0.4283863493       32.8157581657
  H         6.9306097735        2.8873491564       18.8508638964
  H         6.4404542252        3.2200109032       20.3292999698
  C         5.1990246712        1.7673973378       19.4793717380
  H        11.3355586397        2.8127931561       21.7489660069
  H        11.8402086047        2.6390049857       20.0446379030
  C        12.6415460724        1.1926799910       21.3493141001
  C        10.4247973334        7.2919456226       17.1307475463
  C        10.9021325925        5.1599173379       16.0516236605
  H         2.6723702738        4.6139170292       29.4129188849
  H         2.4052177349        6.4144819299       29.3274739700
  C         1.0595462693        5.4334320664       30.5164127070
  H         5.2310018480       -1.5182752684       32.8171402249
  C         4.7745816655        0.0715350771       34.0560218717
  H         4.4259450206        2.5642565585       19.4625173755
  H         5.0817558633        1.1104612560       20.3735818139
  C         4.9193090189        1.0288110701       18.1747299994
  H        12.4773999419        0.8568232105       22.3376632669
  H        12.6217077220        0.3211240160       20.7318376984
  C        13.9499456448        1.9290094624       21.2635894017
  N         9.8338120692        8.3107591082       18.0006562085
  C        10.7389538143        7.8952528564       15.9643037547
  C        11.2974661253        5.7946453179       14.8526006725
  H        11.0021640938        4.1100931041       16.1564611114
  H         0.3883599656        4.5736755063       30.3870854379
  H         1.7124618082        5.3834462145       31.3432864287
  H         0.4064244020        6.2830953617       30.7877051449
  S         4.3352335050        1.6427885642       34.4454386498
  C         4.7291804994       -0.9602966891       35.1276623036
  H         5.2648041137        1.5857628571       17.3376304018
  H         5.4220620351        0.0272032569       18.1351079537
  C         3.4099298581        0.7888466251       17.8768853477
  H        13.9187015490        2.9749426578       21.6605548324
  H        14.1985325363        2.1667927606       20.2124388710
  C        15.0401261887        1.2096037705       22.1052445343
  S         9.8987637851        9.7700020438       17.2863527185
  N        10.5526324294        9.2913635670       15.9126188426
  C        11.1712617580        7.2772923865       14.7799992573
  H        11.8008824124        5.1896420309       14.0581661176
  C         4.1292350919        0.9099386522       36.0278047735
  N         4.2783305359       -0.3832632236       36.2431095255
  O         5.0237618564       -2.1347106644       35.0006573602
  H         3.2287206140        0.7051443453       16.8055438021
  H         2.7557210402        1.5530267031       18.2500024240
  C         2.8786112422       -0.4906365730       18.5859481039
  H        14.6250152944        1.0126823820       23.0712326620
  H        15.2830104921        0.2486924522       21.6460116900
  C        16.2875149364        2.1502537938       22.2032969020
  C        11.4759446160        8.0718358078       13.6257543518
  S         3.6092498396        1.9515790298       37.3623243241
  C         4.2968031104       -1.0366189682       37.5657405240
  H         3.4217280104       -0.6732937636       19.5018521497
  H         1.8943907149       -0.2960393722       18.9648954011
  C         2.9836474671       -1.6541130753       17.7037678823
  H        16.1607381262        2.8398736211       23.0299940576
  H        16.3766468035        2.7607590317       21.3056388229
  C        17.4782997827        1.1875601677       22.3438315221
  H        11.2968162542        9.0890014288       13.6421066546
  C        11.7908670599        7.6980883650       12.3282756181
  H         3.5091141274       -0.6613166543       38.2254413201
  H         3.9251273725       -2.0352019770       37.4914223109
  C         5.7448790538       -1.0628538439       38.1215358035
  H         2.6449962042       -2.5700289921       18.2400710204
  H         4.0200219898       -1.8287457244       17.4175389670
  C         2.1559581369       -1.6309299593       16.4548529019
  H        17.3942817348        0.6286621801       23.1833110079
  H        17.5357112820        0.5604529452       21.4757963836
  C        18.7536637475        2.0714883853       22.4828678201
  S        12.1783876850        6.1805273068       11.7420991888
  C        11.9450596980        8.8559523641       11.3477941421
  H         5.7544610073       -1.5449348611       39.0780900310
  H         6.4923010755       -1.6135769968       37.5063670961
  H         6.1490021997       -0.0878290013       38.2987485082
  H         1.5198134100       -0.7421537546       16.4888480723
  H         1.4551271666       -2.5496565156       16.4723626967
  H         2.6851944323       -1.5653349383       15.4455979195
  H        18.7781429158        2.2883589632       23.5387580391
  H        18.6555125640        2.9321660035       21.8228821790
  H        19.4992092071        1.4002301452       22.2670055275
  C        12.5043581388        6.9968347364       10.1633672959
  N        12.2213460304        8.3413914678       10.1071457262
  O        11.6079819993       10.0173251299       11.5882847236
  S        13.2276298709        6.1052539447        8.7092184995
  C        12.3389613814        9.1395962863        8.8139463311
  H        13.0753700059        9.9236390111        9.0482594059
  H        12.7126872550        8.5901029637        7.9198569725
  C        11.0595369073        9.9310493421        8.3880251402
  H        11.0928827729       10.9093533110        8.7807309655
  H        11.1503428138       10.0289097794        7.2947598698
  H        10.1393525612        9.4077124777        8.7861691966
  H        21.8445542855        8.6142570135        3.8392934214
  C        22.3021877140        9.5717258238        3.7114838357
  H        23.1491348875        9.2766096105        3.0688996460
  C        23.0461327705       10.1896063098        4.9076386590
  C        21.3229560684       10.4676108746        2.9016050012
  C        22.0082285167       10.5954769143        5.9364531633
  H        23.8390416342        9.4724623613        5.2662836572
  H        23.5363916071       11.0942677751        4.4743462795
  H        21.7115709243       10.8859219529        1.9937716583
  H        20.8756091900       11.2752275491        3.4846075255
  H        20.4324646521        9.9284162221        2.5411204116
  C        21.0839861125        9.4319174049        6.4237840927
  H        22.6713141352       10.9981351992        6.7290062568
  H        21.4599598128       11.5073692358        5.6788824777
  C        20.4150834762        9.5148972930        7.7629244189
  H        21.7383957249        8.5467033981        6.3920948857
  H        20.3984709843        9.1659575775        5.6088644834
  C        19.1147163499       10.3401297654        7.6972233988
  H        21.1154081804        9.8262775958        8.5935640586
  H        20.2220547177        8.4949459000        7.8426509256
  C        17.8389300818        9.6498918165        7.2115502382
  H        18.9480081201       10.9628718693        8.5027021568
  H        19.3912284965       11.0765656467        6.9795402139
  C        16.6250297858       10.4721813864        6.9941170049
  H        17.5008714055        8.9072229876        7.9989216793
  H        18.1617380320        9.2349124018        6.2419287354
  C        16.8776564595       11.8528683251        6.3101452032
  C        16.2702317795       11.2353377726        8.2327814347
  C        15.4917888894        9.6216538558        6.3192930918
  C        16.8099662228       12.9273183980        7.0981228903
  C        17.3278784005       12.1818200889        5.0057797617
  C        16.4000848906       12.5452984570        8.3450288800
  C        15.9519022565       10.6196858280        9.4042740314
  H        15.9135100206        9.1095394674        5.4559886853
  H        15.0407580134        8.9389747927        7.0503409856
  C        14.3082060225       10.4497071972        5.8126787686
  S        17.2554902248       14.3980626984        6.3357441980
  C        17.6159935002       13.5182322508        4.8601825776
  H        17.5247439291       11.4440337519        4.2791733730
  C        16.1402199674       13.1473791662        9.5674847270
  H        15.9907656458        9.5458425049        9.3140190228
  C        15.6682455387       11.1632250777       10.6293850886
  H        14.5560108694       11.3213631612        5.2577680828
  H        13.7736694034       10.8065902268        6.7039886973
  C        13.2667345938        9.6580856530        5.0168108142
  C        18.1116219302       14.2220676671        3.6128445780
  C        15.6798385125       12.5047400765       10.7340430458
  H        16.1764896857       14.2399928783        9.4892834166
  C        15.3350728701       10.7720337173       11.8764362155
  H        12.2920939129       10.1885631440        5.0616036077
  H        13.0735965525        8.6811588413        5.4523727041
  C        13.4978034463        9.4218292471        3.4843755772
  C        18.0236911345       15.6422677689        3.4364720257
  C        18.5814360234       13.4158932817        2.4132548295
  C        15.3523235135       13.2700807074       12.0389395023
  C        15.1192323448       11.9150327507       12.6855660645
  S        15.0860794566        9.2733684250       12.6124744250
  H        13.9299977088        8.4402803562        3.3393496236
  H        14.2302738222       10.1406691331        3.3065028203
  C        12.2117781412        9.5672996651        2.6895862821
  N        17.5933088304       16.5653427081        4.3829949305
  C        18.3874932077       16.2535557988        2.2446644575
  C        18.9636578841       14.0550472794        1.2248717627
  H        18.6811666597       12.3464463260        2.4448962675
  C        13.9448697565       13.8871793084       12.0074642066
  C        16.5047289355       14.0830944496       12.7149745829
  C        14.8289025027       11.4846477542       14.0005912448
  C        14.7960661454       10.1216392587       14.1342335423
  H        11.4840439443        8.9470760603        3.1290511620
  H        11.9775822623       10.6194890667        2.6538834172
  C        12.3187035058        9.0498674400        1.2703370243
  S        17.7196043629       18.0281351093        3.7332783609
  N        18.1783294329       17.6270373815        2.2091247424
  C        18.8806172776       15.5860319546        1.1279748004
  H        19.3755584377       13.3863126534        0.4424949718
  H        13.8608289782       14.8147724429       11.4554499267
  H        13.7655713154       14.1400350269       13.0641619781
  C        12.8393538003       13.0306027230       11.3937276434
  H        16.6764888504       15.0651026656       12.1722681293
  H        16.0731177794       14.3650466386       13.6818426097
  C        17.8532792733       13.3200540451       13.0047132173
  H        14.7068744346       12.1964664864       14.8335996875
  C        14.4052233005        9.3762874232       15.3651854816
  H        11.4535056893        9.4198413946        0.8182417322
  H        12.2657931103        7.9758340879        1.1007063372
  C        13.5620754516        9.6858064948        0.5251288446
  C        19.0088617801       16.2415529243       -0.1310865313
  H        13.0736537066       12.6246200465       10.4122637964
  H        12.5964169337       12.2272023051       12.1189663658
  C        11.5624532503       13.8375894329       11.1965055113
  H        18.3756489582       13.2655250462       12.1019344550
  H        17.7456014715       12.3590473283       13.3368498084
  C        18.7340656548       13.9312197082       14.1064975778
  C        14.4050754910        8.0047656293       15.5006535782
  C        13.9068494790       10.2178290161       16.4620431823
  H        13.8043250238       10.6890448743        0.8444196552
  H        14.4604881784        9.1424549590        0.7062328351
  C        13.3380428968        9.8066985770       -0.9793752146
  H        18.7118884327       17.2211891838       -0.2185147910
  C        19.2035186370       15.7943580649       -1.4465659210
  H        11.5548103143       14.3268472897       10.2484519902
  H        11.3736090269       14.5654035027       11.9991363782
  C        10.4116151617       12.8567378227       11.2765351910
  H        18.6740356016       15.0029313573       14.0667868656
  H        18.4073408132       13.5380362914       15.0623860512
  C        20.1987603860       13.4192821960       14.1083503194
  N        14.7919131044        6.9913326947       14.5842856776
  C        14.1076186320        7.4113449254       16.6835640662
  C        13.4998579765        9.6415745728       17.6588325260
  H        13.6631263497       11.2233873403       16.4605952966
  H        14.2535459805        9.5965783583       -1.5296588973
  H        12.7846968123       10.7648906361       -1.1708646729
  H        12.5628841298        9.0707499676       -1.2335560241
  S        19.6631850504       14.1723352849       -1.9330747143
  C        19.1708962953       16.7425323996       -2.5206178632
  H        10.5556137836       11.9659871451       10.7519978671
  H        10.1829216382       12.6339549926       12.2868101738
  C         9.1150190193       13.4063177830       10.7218047916
  H        20.4053761352       13.2623780372       13.0279819967
  H        20.2991199902       12.5366419859       14.7219017300
  C        21.1844594100       14.4712458129       14.7600130667
  S        14.7089038466        5.4775627726       15.2097863586
  N        14.1904411122        5.9687224767       16.6689546021
  C        13.6671196762        8.1810488071       17.8128460809
  H        13.2227195912       10.3452434783       18.4278714129
  C        19.8261133189       14.9466621270       -3.6128747169
  N        19.7922671385       16.3059887058       -3.5967171211
  O        18.8348693697       17.9244737304       -2.4174893926
  H         8.3895416153       13.5240598890       11.5422818235
  H         9.2262414424       14.4353094274       10.4222258748
  C         8.6140995042       12.5152245730        9.7044880399
  H        20.8112377055       14.7149148266       15.7440313256
  H        22.0714531035       13.7977343507       14.9317999012
  C        21.7086990043       15.6988852993       14.0232819296
  C        13.4167237612        7.4993147597       19.0595348265
  S        20.3488744856       14.1863231423       -5.0652896633
  C        19.9299271609       17.1023044474       -4.8233319751
  H         9.3305864375       12.2325659521        8.9532468022
  H         8.3540901574       11.5824427001       10.1804660316
  C         7.4889157098       13.0235399191        8.9471567294
  H        20.9094405656       16.2758932019       13.4952129270
  H        22.4350790730       15.4840605088       13.2071352064
  C        22.4483497603       16.7211782584       14.9300066036
  H        13.7076558601        6.5353318453       19.0485681790
  C        12.8541542691        7.7846725208       20.2169890935
  H        20.7502067763       16.7115916570       -5.3784775315
  H        20.1322195575       18.1176349894       -4.5933794332
  C        18.5311044460       17.1845537960       -5.6108437128
  H         7.1995429048       12.3625282244        8.1437524898
  H         7.9196023251       13.9242234718        8.5076841002
  C         6.2391946821       13.2370936780        9.7250366144
  H        23.2560163924       16.1219451723       15.3642250792
  H        22.8849533249       17.4874482360       14.3529595777
  C        21.5384119665       17.4770101900       15.9736488505
  S        12.0312687686        9.2905302922       20.6746201766
  C        12.8744473870        6.6845005839       21.2761712992
  H        18.3593322308       16.2345963261       -6.2557157600
  H        18.4742117894       18.0820065262       -6.1985971888
  H        17.7382149296       17.3210564799       -4.9148108233
  H         6.0481912824       12.4375079708       10.3075795427
  H         6.4936727386       14.0536130409       10.3140166448
  H         5.4757437350       13.5874745309        9.0641698524
  H        21.0704257269       18.3304347062       15.4751522580
  H        20.6737651500       16.9107789522       16.1052498913
  H        22.0223080900       17.7302173574       16.9387093916
  C        11.7006360330        8.4786631920       22.2122709336
  N        12.1572452383        7.1811987990       22.2894745701
  O        13.2234914411        5.5460659197       21.1285622756
  S        10.9324617901        9.2525221673       23.6717264299
  C        11.9973265016        6.3741299318       23.4884163955
  H        12.0591007736        5.2702052069       23.2590960840
  H        11.0159454880        6.4969344313       23.9860803941
  C        13.1077416298        6.7250258102       24.4280223010
  H        14.0497194594        7.0565263241       23.8779632071
  H        13.3597765867        5.7979428575       24.9328771164
  H        12.7538251297        7.4577615485       25.1710582802
