352
 i =    76800, time =    76800.000, E =        25.2554610245
  H        10.0284179412        7.1242827622       32.3873201164
  C        11.0059613898        6.7707098177       32.2551475870
  H        11.6320627083        7.6273268308       32.2255561671
  C        11.1551504732        6.1490814561       30.8714414788
  C        11.3017666680        5.8801566075       33.4531877922
  C        10.1490565589        5.0912202828       30.5344087601
  H        11.1129601321        6.8762940037       30.0338713113
  H        12.1586531366        5.7606991459       30.9635524733
  H        10.4220591138        5.3212325891       33.6983908136
  H        12.0498447268        5.2096360652       33.1202315740
  H        11.6976328110        6.4940132296       34.2584858413
  C         9.2129894974        5.5330745861       29.4190344209
  H         9.5241221934        4.9365096297       31.4967883165
  H        10.4423342322        4.1337910789       30.0619658984
  C         9.8844878628        5.6301904385       28.0419675703
  H         8.3096626129        4.8841763047       29.4147854272
  H         8.7383521302        6.5817019805       29.5793120965
  C         9.1010479968        4.8607441135       26.9549569049
  H        10.9855443048        5.2925878686       28.2248784390
  H         9.9334450999        6.6218034620       27.6352299855
  C         7.8166901974        5.5299106645       26.4454412647
  H         9.7223530251        4.7739491654       26.0381592141
  H         8.9258423545        3.8764380377       27.2974987086
  C         6.7370322699        4.7067819700       25.6975605477
  H         7.2955218173        5.9664381618       27.2584676465
  H         8.0135769495        6.4157587705       25.8131497694
  C         6.3982849559        3.3684819391       26.3477221334
  C         7.2733106515        4.0589841784       24.4512309082
  C         5.5485423985        5.5395641133       25.2165260153
  C         6.6713217547        2.2852850904       25.5499360419
  C         5.8990142592        3.0027287054       27.6296643687
  C         7.1627637264        2.6811422842       24.2937399817
  C         7.8673954761        4.8119043422       23.4104818941
  H         4.9457296200        4.9387327200       24.5386493011
  H         5.9479982907        6.4162956361       24.6098239053
  C         4.6757700004        6.0410900969       26.4055566691
  S         6.3973509531        0.7629645741       26.2808128700
  C         5.8395636110        1.6161876423       27.7338204378
  H         5.4899663906        3.7495326896       28.2727026933
  C         7.5496201378        2.1643283234       23.1312513308
  H         7.8628500567        5.8667520184       23.6331335966
  C         8.1940684010        4.2504198741       22.1959883465
  H         4.9022922202        5.5482888652       27.4194992067
  H         4.7680746000        7.0593854646       26.5596228821
  C         3.2319825987        5.7332010066       26.0759850513
  C         5.4342246725        0.9899060624       29.0169166796
  C         8.0601916556        2.8885271832       22.0116558496
  H         7.5351330703        1.1332098700       23.0481899484
  C         8.6228557876        4.7114364726       20.9447856333
  H         3.0548474737        4.7157353145       25.9325167516
  H         2.9507510430        6.2223751114       25.1448724456
  C         2.2563858751        6.3179838689       27.1288396592
  C         5.5328324594       -0.3886655844       29.3200124365
  C         4.9723764248        1.8279340763       30.1207409310
  C         8.4161641964        2.1975258971       20.7579310212
  C         8.7794048186        3.5839562699       20.1485013825
  S         9.0931091826        6.2170986382       20.2145652719
  H         1.2910479775        6.4894700829       26.6902068857
  H         2.6149385577        7.3037825027       27.4831695943
  C         1.9354966012        5.3735642132       28.3095238143
  N         5.8074361399       -1.3239220689       28.3692043594
  C         5.3392186678       -0.9041261916       30.5661699789
  C         4.8201193915        1.3639494402       31.3892702974
  H         4.7708347409        2.8647442384       29.9197585368
  C         7.1850708818        1.4686983101       20.1355372954
  C         9.7459993270        1.3290378269       20.7938846624
  C         9.1673991806        3.9985889176       18.8968129482
  C         9.4331897944        5.3094088290       18.7194636071
  H         1.4140984189        4.4902264823       27.9490630646
  H         2.8945501740        5.0137998928       28.7930286801
  C         1.2085386772        6.1009664467       29.5093420373
  S         6.0833810848       -2.7334244995       29.1232010187
  N         5.5309578087       -2.2579723500       30.5890572135
  C         4.9745140017       -0.1011275335       31.6804133928
  H         4.5370938991        2.0624473694       32.1827817208
  H         6.9216033540        0.7124038478       20.9076954146
  H         7.6195760146        0.8895653984       19.3467855104
  C         5.9723403528        2.3199755930       19.7652049115
  H         9.9205528712        0.8606386514       19.8630215892
  H         9.5635095146        0.5454273917       21.5306350963
  C        11.0056461308        2.0524607732       21.0906378767
  H         9.3082984968        3.2571467677       18.1095815130
  C         9.7300770238        5.9662536160       17.4719393243
  H         0.3446644953        6.5323982475       29.0203256847
  H         1.6898847810        7.0540397932       29.7786728562
  C         0.9193967523        5.1828089979       30.7231917232
  C         4.8733733229       -0.6761687583       32.9655508367
  H         6.2815225952        3.0111624847       18.9747558758
  H         5.7644835322        2.9168923080       20.6515775264
  C         4.6871243706        1.5069653572       19.3265260519
  H        10.8493437249        2.5661677753       22.0252849162
  H        11.1250734749        2.8438870485       20.2750835857
  C        12.3656604314        1.3023107965       21.2340861397
  C         9.9469353844        7.3546393003       17.2555416433
  C         9.8968404794        5.2384996553       16.1918041879
  H         0.3628808870        5.7141416100       31.5626818231
  H         0.2819336615        4.3335147065       30.3773679941
  C         2.0796896452        4.6440583042       31.4704714300
  H         4.9820793022       -1.7273170044       32.9450654008
  C         4.5359506527       -0.1869055989       34.2180314663
  H         3.8790385986        2.2079164329       19.0006711231
  H         4.3446042703        0.9675663458       20.2291577283
  C         4.9232289303        0.6555980734       17.9916970356
  H        12.3698839299        0.4415453575       21.8415888094
  H        12.7516733679        0.9818260103       20.2655860875
  C        13.4240919802        2.1083587448       21.9880495785
  N         9.5650936020        8.3061026072       18.2246887884
  C        10.3596836701        7.9299307438       16.1247381543
  C        10.3196739191        5.8387887493       14.9492764922
  H         9.6724898046        4.1828350225       16.1589895582
  H         2.7365355805        5.4651688555       31.8880771763
  H         1.8449215686        4.0178893089       32.3254635596
  H         2.8046717801        4.0239662224       30.8931634280
  S         4.3222963166        1.5099593812       34.6809492153
  C         4.3833384307       -1.0758923197       35.3065734456
  H         5.4086134951        1.1178293830       17.2273678943
  H         5.4221661886       -0.2422589551       18.2265698352
  C         3.6139456666        0.0998875922       17.4553097010
  H        13.0376259307        2.5729769303       22.9004419971
  H        13.7977088305        2.9984247393       21.3931336410
  C        14.7213832248        1.4267196126       22.3914301501
  S         9.7264410248        9.7734856672       17.5727675372
  N        10.4131604126        9.3446531605       16.1713206092
  C        10.5739280349        7.3161483804       14.8827924923
  H        10.5269294571        5.2041135613       14.0580805767
  C         4.1986698488        0.9631728310       36.3620698845
  N         4.0164504420       -0.4121500227       36.4168705162
  O         4.4372549068       -2.3191170635       35.1292094211
  H         3.5316631937        0.0230231797       16.3743209391
  H         2.7949485283        0.7958219316       17.7486235478
  C         3.3679574655       -1.2614609283       18.0566056182
  H        14.5554491344        0.5424845689       22.9215008669
  H        15.3063482096        1.1624465066       21.4702271082
  C        15.5938985128        2.4215979435       23.1489928904
  C        10.9195157163        8.0804508634       13.7558064667
  S         3.5591243228        1.8816417833       37.6817443213
  C         3.7455586044       -1.0783939919       37.6741719784
  H         4.1044010666       -1.9980513692       17.6562112840
  H         3.5537864113       -1.2939924729       19.1402222556
  C         2.0029746993       -1.8175738854       17.8605727846
  H        14.9814668379        2.8058099925       23.9909353703
  H        15.7783678513        3.2027805349       22.5041178026
  C        16.9639328469        1.9689480087       23.7098121032
  H        10.5964509343        9.0950341944       13.8199045425
  C        11.3459754945        7.8369604530       12.4907615056
  H         2.8822881754       -0.6922885966       38.2213065595
  H         3.3492656356       -2.0573688016       37.4130273880
  C         5.0949572383       -1.1248994144       38.4033288096
  H         1.1807298435       -1.1279787225       18.0112109943
  H         1.9346349867       -2.6740511192       18.5226620499
  C         1.7553133730       -2.2125007438       16.4440319563
  H        17.2099367022        2.6988638237       24.4551266057
  H        16.8560172315        0.9460148932       24.2223173569
  C        17.9800445431        2.0472431019       22.5602776553
  S        11.7541520286        6.3028453599       11.8099093607
  C        11.5491853440        8.9680242585       11.5103050589
  H         5.9774099912       -1.4388112963       37.7655560105
  H         5.3285842332       -0.1836584446       38.9473676591
  H         4.9786203055       -1.8931499822       39.1703422447
  H         2.2812268173       -1.5294182028       15.8495542589
  H         0.6549596079       -2.2648445289       16.1717258330
  H         2.1272021084       -3.1947838330       16.2133490731
  H        18.0793780537        3.0778246587       22.1594185228
  H        17.7289695062        1.2849274907       21.7798376907
  H        18.9506455649        1.6799994084       22.8540494199
  C        12.0688596212        7.0842524742       10.2875058167
  N        12.0198659558        8.4503796469       10.3280266547
  O        11.3113776751       10.1575568157       11.6357389949
  S        12.4965749132        6.2251042566        8.7004904142
  C        12.3098633809        9.2417825515        9.0465683381
  H        12.5949803677       10.1847165660        9.4361931223
  H        13.0677773605        8.9122708137        8.3543858871
  C        11.0683769258        9.6871343032        8.2884981247
  H        10.6716243907        8.8570902422        7.6833679119
  H        10.1924876204        9.8948968218        8.8990419400
  H        11.2451585666       10.6484733933        7.6991606372
  H        20.9792962381        9.7609510438        3.1330343639
  C        22.0617521958        9.9281303854        2.8857706436
  H        22.4770000703        8.9361724989        2.6985638484
  C        22.7871171038       10.5162603394        4.0867182809
  C        22.2156327351       10.7143683258        1.5978183284
  C        22.0642589538       10.5522679140        5.4846625971
  H        23.7262249095        9.9209203997        4.2820899224
  H        23.1465149425       11.5449093659        3.8779165374
  H        22.9968576343       11.4124540096        1.6410084301
  H        21.2757295657       11.2784735589        1.3702325514
  H        22.4692995681       10.1099228893        0.7660978007
  C        21.4088508047        9.1923554502        5.8003843084
  H        22.6452447840       10.9778326400        6.3333157022
  H        21.2772216699       11.2839644633        5.3083556530
  C        20.4548034492        9.3174636553        6.9579524719
  H        22.2524768319        8.6366881437        6.0335628913
  H        20.9666649062        8.7022607919        4.9492999214
  C        19.0208082172        9.2701720780        6.5008313076
  H        20.7694554170       10.2203543975        7.3655033387
  H        20.6013976497        8.5713982979        7.7439918628
  C        18.0503012315        9.6669875862        7.6238478241
  H        18.9140991768        9.9728792388        5.6614276438
  H        18.6911065801        8.2764826185        6.2362247443
  C        16.7927377424       10.4877861881        7.1846760575
  H        18.6345348272       10.2743150189        8.2261916416
  H        17.8459991068        8.7421931700        8.2083584359
  C        17.1517193784       11.8730987668        6.5431512821
  C        16.3450376486       11.3030764175        8.4083960220
  C        15.6437284625        9.7118741287        6.5780534873
  C        16.7278265704       12.9739814189        7.2621430981
  C        17.7302250629       12.2041380454        5.2876052972
  C        16.2960471924       12.6146603263        8.4902461911
  C        15.8427156300       10.6168522825        9.5119034795
  H        16.0458562139        9.1887298775        5.7147629216
  H        15.2827080635        8.8084523378        7.0989958852
  C        14.4253078135       10.5716666620        6.2053416462
  S        17.0529790515       14.3987344979        6.4118735193
  C        17.7090407493       13.5604753481        5.0830431475
  H        17.7150098737       11.4919263764        4.4718089022
  C        15.8657410184       13.2266819075        9.6231334331
  H        15.7475879675        9.5749544860        9.5193975827
  C        15.4655257736       11.2526917016       10.6505270105
  H        14.7810291170       11.5753665387        5.8381881856
  H        13.9944599495       10.8419631698        7.1422795098
  C        13.4905853817        9.8472475255        5.1709295265
  C        18.0709580676       14.2335294949        3.7800286260
  C        15.4313513532       12.5605324535       10.7599355814
  H        15.8910755085       14.3534798783        9.7923033170
  C        14.9350849823       10.8924380640       11.8720183754
  H        12.6036138262       10.4595213963        5.1244992593
  H        13.2132125388        8.8698386886        5.4989355244
  C        14.0985773316       10.0164343184        3.7557508632
  C        18.0646469597       15.6337619603        3.5167510250
  C        18.4532125418       13.3624708463        2.6121974555
  C        15.0237636606       13.2776945842       11.9759265515
  C        14.7768277392       11.9549327413       12.7062646245
  S        14.6577461808        9.4278939957       12.6645282994
  H        14.7836145923        9.2927724800        3.3733904175
  H        14.5164380322       11.0358783774        3.6503350608
  C        12.9346690651        9.9383039591        2.7532941049
  N        17.7353202498       16.5482977650        4.4989241799
  C        18.2049247042       16.0859680357        2.2470205839
  C        18.6214668785       13.8439475924        1.3320957512
  H        18.6152060131       12.3016241678        2.7061809792
  C        13.7512459424       14.1555302326       11.7188935635
  C        16.1516344373       14.0492217634       12.7255480772
  C        14.3100469340       11.6012515299       14.0076366354
  C        14.2204112051       10.2203314048       14.1591423848
  H        12.0446837025        9.4343470478        3.1170990576
  H        12.6493366792       10.9040634465        2.5509988527
  C        13.2985606353        9.0841593668        1.5172512019
  S        17.7499691435       17.9443314660        3.7934240858
  N        18.1094075569       17.4768239011        2.2521739579
  C        18.5059343609       15.3242014915        1.0602908302
  H        18.9898582408       13.1678292059        0.5513554386
  H        13.8520588625       15.0308991849       11.1127353085
  H        13.5730560996       14.6194029023       12.6605787489
  C        12.5739707650       13.3071644126       11.2513561135
  H        16.2943363177       15.0189031624       12.1859788706
  H        15.8385928450       14.4209205735       13.6270664271
  C        17.4904586389       13.2712104110       12.7922304630
  H        14.0764266375       12.3030590766       14.7720839316
  C        13.8333217798        9.4138681516       15.4386303624
  H        12.4477353887        8.4484242683        1.4620397158
  H        14.2006751762        8.5445130741        1.6841718142
  C        13.4715538599        9.8276538074        0.2502015264
  C        18.8394618046       16.0409949320       -0.1538560601
  H        12.7908786760       12.6698972209       10.3985893533
  H        12.2691364421       12.7735895244       12.0822356763
  C        11.3039042713       14.1331101210       10.9295264865
  H        17.8424126004       12.9559130620       11.7900866340
  H        17.4183980087       12.2911963443       13.4003482388
  C        18.6385983217       14.1057627771       13.2459689247
  C        13.7335580625        7.9993163627       15.4627460624
  C        13.7049019016       10.1338032856       16.7094743615
  H        13.7416557707       10.8747642069        0.4676922113
  H        14.1856769703        9.3557276393       -0.4205347554
  C        12.1998005146       10.0769957932       -0.6429176918
  H        18.9957075266       17.0461868879        0.0281293028
  C        19.1936460173       15.6079334516       -1.4056494738
  H        11.5971182791       14.8588783616       10.1940014984
  H        10.9963526764       14.7130519670       11.7682763902
  C        10.1945651883       13.1567595035       10.5377633688
  H        18.8265564264       14.9344200255       12.6054101829
  H        18.4709924318       14.4550256963       14.2522951364
  C        19.9291282101       13.3098437857       13.1972301452
  N        14.1058439783        7.1429077395       14.3929176336
  C        13.4162570159        7.2834156708       16.6135399482
  C        13.4842747270        9.3750833132       17.8494130534
  H        13.7551461144       11.2312154759       16.6779663107
  H        12.2550237463        9.4252741008       -1.5119841341
  H        12.2898818822       11.1043298020       -1.0312724820
  H        11.2818692720        9.8199576574       -0.1920835749
  S        19.6286161608       13.9797548733       -1.9154806524
  C        19.2332439544       16.5834872912       -2.5205553178
  H        10.2692029485       12.5197768529        9.6917410257
  H        10.1242485492       12.5296580178       11.4308184595
  C         8.8170653434       13.7363202543       10.5112615010
  H        20.2195103793       13.3906209353       12.1670402417
  H        19.6517214403       12.2354208483       13.2768158843
  C        21.1359890666       13.7190709861       14.0962424592
  S        13.7270570015        5.5877816522       14.8494030566
  N        13.3238523392        5.8720617787       16.4107449661
  C        13.2115737797        7.9178178065       17.8712618701
  H        13.5245800079        9.9537388382       18.8327670836
  C        19.9356640631       14.7147374978       -3.5453168047
  N        19.7138413385       16.0291402761       -3.6128781265
  O        18.9599061910       17.7743767748       -2.3982367848
  H         8.3377830996       13.6540850421       11.4609225987
  H         8.9448000574       14.7858721880       10.3115793030
  C         8.0199881472       13.1509898583        9.3204242361
  H        20.9260442546       13.6628384639       15.1551457398
  H        21.8815667596       12.9827702552       14.0071771327
  C        21.8075806681       15.0594537141       13.7641901265
  C        12.8567118243        7.1108064827       18.9946609147
  S        20.3653448599       13.9001022246       -5.1291836235
  C        19.8214695889       16.8900913526       -4.8156947300
  H         8.5357434227       13.5240832666        8.4592462695
  H         8.0092760771       12.1242220479        9.3645887978
  C         6.5248058778       13.7124023776        9.2537295529
  H        21.5176241461       15.2464983475       12.7047690250
  H        22.9128574589       14.7799834953       13.8740369827
  C        21.5238222579       16.2578435689       14.7590384376
  H        13.0758994664        6.1103960768       18.8944934297
  C        12.4619174698        7.4432388034       20.2913293222
  H        20.7408080195       16.5038839380       -5.4167201849
  H        20.1602712704       17.8739482131       -4.4831377820
  C        18.4728801709       16.8898423644       -5.5579223204
  H         6.0543822852       13.5235258125        8.3029443564
  H         6.5403829218       14.7519386127        9.3164431014
  C         5.8075537589       13.1789782299       10.5263154755
  H        21.3665879141       15.9398302787       15.7866297892
  H        22.3510432715       16.9914075926       14.7757128198
  C        20.3500272503       17.1721779234       14.3603737251
  S        12.0538434764        8.9847628888       20.7963050814
  C        12.3161945867        6.4105703912       21.3197074033
  H        18.4106390601       15.9918959460       -6.1055517463
  H        18.5001306469       17.7015059384       -6.2570916791
  H        17.4889996141       17.0839155209       -5.0325568637
  H         5.8427978728       13.8782115263       11.3431770427
  H         4.7787912363       12.9855591787       10.2061410765
  H         6.3216471004       12.2375990291       10.8962064434
  H        20.3013747627       18.0219687404       15.0842739037
  H        20.2589229220       17.6253921299       13.3589016549
  H        19.4164654217       16.5683085865       14.3726965335
  C        11.5477605272        8.2218955725       22.3438907167
  N        11.6197929213        6.8953215511       22.3626418861
  O        12.5320231911        5.2401067709       21.0471158414
  S        10.9607341057        8.8921125914       23.9057733704
  C        11.3668579043        5.9779102338       23.4231830408
  H        10.9691384859        5.0056483975       23.0393410565
  H        10.5259608483        6.2816314047       24.0522530539
  C        12.6640699314        5.7776280193       24.3282012103
  H        13.5423310731        5.5891225046       23.7171744574
  H        12.4565978280        4.9912502873       24.9866675742
  H        12.8224611233        6.7775840172       24.8296931859
