352
 i =    70700, time =    70700.000, E =        24.9964376781
  H        12.4404584859        4.7676321007       31.9883203633
  C        11.5086533090        5.4111467822       31.8772471056
  H        10.6949991349        4.7117559220       31.7373503897
  C        11.5003519382        6.4691796620       30.6933172763
  C        11.5245331115        6.1921879171       33.2579578781
  C        12.0687784565        5.9935601140       29.3889945387
  H        10.4919239814        6.8069274376       30.5789858870
  H        12.0471984411        7.3381559621       30.9887743480
  H        12.1103055295        7.1128995043       33.1482948274
  H        10.5083509031        6.2505668333       33.5907242809
  H        12.0282230976        5.6861518388       34.0887560892
  C        11.1242345439        5.0591208683       28.6023075310
  H        12.9972649277        5.5619568018       29.5618244119
  H        12.3699479065        6.9205087795       28.7777784599
  C        10.6789008877        5.7019695642       27.2820304833
  H        11.5731285471        4.0515337689       28.4761997562
  H        10.3235047349        4.9169268870       29.3048719978
  C         9.6308151429        4.8629598183       26.5853566489
  H        11.4695031966        5.9531133137       26.4997892103
  H        10.3493555262        6.6867358474       27.5471742148
  C         8.6022971600        5.7275204243       25.8667830276
  H        10.0222056983        4.2201364047       25.7765981483
  H         9.2063282574        4.2790354400       27.3779823237
  C         7.4955051753        4.9888828100       25.1086283371
  H         8.1678862318        6.4144625652       26.5947806349
  H         9.1020296882        6.4519997152       25.2448074407
  C         7.1739819729        3.6360031065       25.8023425551
  C         7.9898770783        4.2096639002       23.9498757107
  C         6.2295034470        5.7443523488       24.5810882519
  C         7.4358101940        2.4815427318       25.0498560790
  C         6.7427030268        3.2624140793       27.0358420806
  C         7.9470258825        2.8303066815       23.8463549188
  C         8.3231958285        4.8866644372       22.8020442650
  H         5.6870185274        5.2087669760       23.7476271347
  H         6.5573361403        6.7136506996       24.1775704471
  C         5.2228744841        5.9322428325       25.6826550810
  S         7.0333439110        1.0090261652       25.8158781364
  C         6.5993336345        1.9194655753       27.2353218054
  H         6.5628039861        4.0768773674       27.7190881927
  C         8.3438195930        2.3126657581       22.6286846949
  H         8.2360569693        5.9604749412       22.8876816507
  C         8.8145589228        4.3492555614       21.6133776880
  H         5.0154151941        4.9470883327       26.1489090285
  H         5.4997252828        6.7095719373       26.4641857882
  C         3.8611275588        6.3400545817       25.1975432526
  C         6.2997872220        1.2519922709       28.5516492384
  C         8.7946483014        3.0297381747       21.5129526353
  H         8.4796111009        1.2067315567       22.5793100481
  C         9.2063092912        4.8270364646       20.3642676434
  H         3.3957273351        5.6302255474       24.4519285697
  H         3.8388536532        7.2606818154       24.6741881485
  C         2.8500687829        6.4574662976       26.3575950496
  C         6.2991980199       -0.1259509466       28.8572036071
  C         5.8430877348        2.1047630422       29.6301699620
  C         9.2513095478        2.3767576390       20.2979333988
  C         9.4370650786        3.7396583572       19.6222506294
  S         9.3386912738        6.3592996750       19.5729922304
  H         1.9709450004        7.0329553557       26.1350536883
  H         3.4075222220        7.0112979219       27.1664346484
  C         2.2860157058        5.1219535188       26.7615547593
  N         6.7241652230       -1.1315230056       27.9276295943
  C         5.9293605397       -0.6438192172       30.0739118367
  C         5.4700384287        1.6110731407       30.9024880448
  H         5.7750945873        3.1806366453       29.4983437116
  C         8.0120267117        1.5440605752       19.7123767568
  C        10.5403141809        1.5416609910       20.3475327873
  C         9.8750804344        4.1429748688       18.3256623792
  C         9.8690244698        5.5031318177       18.1581029157
  H         1.2664843118        4.9132955166       26.2246155939
  H         2.8146944378        4.2693942861       26.2861400029
  C         1.9325274509        4.9636728651       28.2531802643
  S         6.6343686660       -2.5431916501       28.7024845413
  N         6.0148637022       -1.9967571181       30.0933282261
  C         5.5705133303        0.1616364771       31.1941336262
  H         5.1882529384        2.2435287255       31.6656023904
  H         7.6682630437        0.7961095569       20.4301355597
  H         8.2409984530        1.0958518782       18.7719354347
  C         6.8254580012        2.4612488390       19.4675021860
  H        10.8278878131        1.0770669984       19.3925406492
  H        10.3544749703        0.7736965613       21.0835670540
  C        11.7782903648        2.4079518547       20.8770592207
  H        10.1283143149        3.3934682247       17.5665139672
  C        10.1434887266        6.2789504258       16.8398438892
  H         1.2344693586        4.0578049964       28.3507284352
  H         1.4169541452        5.8271671648       28.6824093055
  C         3.2402085806        4.7920603558       29.0719545530
  C         5.3583956135       -0.5184279852       32.3960560977
  H         7.1400562699        3.2847102791       18.7149625424
  H         6.5977152716        3.0408950441       20.3231558584
  C         5.5291256175        1.6743966225       19.2260617231
  H        11.4554526573        3.0744423224       21.6533074854
  H        12.1461869294        3.0550825604       20.1275447546
  C        12.8556132103        1.5197483200       21.3481048339
  C        10.3043688199        7.7105986237       16.6794825926
  C        10.3190163928        5.4579903974       15.6191603300
  H         3.7070226468        3.8831446073       28.6441444034
  H         4.0421926195        5.5446434063       28.7966402764
  C         2.8275667729        4.7339348365       30.5706277609
  H         5.6287397721       -1.6037150534       32.4142760140
  C         5.0206611431       -0.1311589021       33.6875258118
  H         4.7099704246        2.3468935518       19.3891825159
  H         5.4281469612        0.8503962955       19.8823366770
  C         5.4621066297        1.0861047301       17.7648754892
  H        12.4875963842        0.7020536237       21.9067303630
  H        13.3193482006        1.0055975477       20.5372019140
  C        13.9015659982        2.3332547380       22.0989969969
  N        10.2071213320        8.7022166100       17.7435425557
  C        10.7694951491        8.2677829432       15.4917375087
  C        10.6092531325        6.1005181204       14.4410936854
  H        10.0727797129        4.3921268586       15.5612533948
  H         1.9121560773        4.1354823760       30.5626704414
  H         3.5869020087        4.3260709904       31.2405284458
  H         2.3634323058        5.6878194502       30.8511035327
  S         4.4912984420        1.4696788662       34.2893754003
  C         4.9653454820       -1.1709146263       34.7523888326
  H         5.9985060941        1.7293100980       17.1600449911
  H         5.9481480992        0.0667424115       17.8014223959
  C         4.0640479294        1.1273680434       17.3007018521
  H        13.3781775371        2.6538158623       22.9742727620
  H        14.1388671948        3.1515224833       21.4274607145
  C        15.1786793896        1.6463867864       22.4555481887
  S        10.4241985260       10.1729333724       17.0448858261
  N        10.8876235092        9.6452044034       15.5294211628
  C        10.9899466490        7.5267929527       14.3465154303
  H        10.6090384358        5.4913674519       13.4602737584
  C         4.4472775477        0.7225165872       35.8963389733
  N         4.5577810733       -0.6400767940       35.9342462931
  O         5.1164480070       -2.3881485646       34.5467824874
  H         4.1287210891        0.8552688011       16.2797003158
  H         3.7728802627        2.1972639868       17.3546663815
  C         3.1467986360        0.2602504956       17.9892882234
  H        15.0317901167        0.9354929060       23.2918238317
  H        15.6207525424        1.0531863568       21.6350499825
  C        16.1337431330        2.7787490816       22.9800288993
  C        11.4316606490        8.3093320457       13.1954246619
  S         4.0623771795        1.5935621071       37.3263662986
  C         4.5793648861       -1.4174611280       37.2239825068
  H         3.4420093027        0.3749135164       19.0241528169
  H         2.0475745801        0.5304480883       17.8832279499
  C         3.3305594441       -1.2659085695       17.7839812143
  H        15.6538158544        3.5493376423       23.5714545876
  H        16.3342488710        3.3393707162       22.1085721161
  C        17.4527857432        2.1606005379       23.4626732344
  H        11.2642183574        9.3524259896       13.2798107459
  C        11.8405728779        8.0083125643       11.9189450894
  H         3.7412461978       -1.0644739917       37.8813423664
  H         4.4006057994       -2.4998301224       37.0052633212
  C         5.8443857259       -1.2319362237       37.9711060562
  H         3.5046372596       -1.7689426457       18.7040992577
  H         4.2110379924       -1.4219779795       17.2205914534
  C         2.1442036247       -1.9161287371       17.0403682554
  H        17.7857946729        2.5690556416       24.4297460182
  H        17.4494149196        1.0674411133       23.7087031656
  C        18.5138228988        2.0753630803       22.3536701040
  S        12.3706121567        6.4729543066       11.3176899508
  C        11.8770876773        9.1472154492       10.9843764539
  H         6.6000071853       -0.6098828357       37.4937757463
  H         5.7257405734       -0.9577922689       39.0280576436
  H         6.3936343205       -2.1804337015       38.0750292008
  H         1.4188389853       -2.4556429749       17.6228520860
  H         2.5847702219       -2.6912890848       16.3918665059
  H         1.6162452751       -1.2650255747       16.3121528377
  H        18.8331793656        3.0161355546       21.9440219794
  H        18.0909892356        1.5447943577       21.5568236244
  H        19.4026632516        1.6017104411       22.6192596316
  C        12.7795844108        7.4372688075        9.8874225926
  N        12.3926353478        8.7236271702        9.8705578154
  O        11.4778332757       10.3020831947       11.2223390661
  S        13.8235635086        6.8335039920        8.5914308233
  C        12.3952675084        9.6736515319        8.7456645776
  H        12.4768695984       10.6862534878        9.0242738332
  H        13.3090615426        9.3547531621        8.2325525199
  C        11.2072994236        9.4281468753        7.8333147527
  H        11.4065644617        8.8584441389        6.8208906055
  H        10.3554495143        9.0246259146        8.4709979502
  H        10.8914255312       10.3712782040        7.4950010923
  H        21.2947351346        9.6806782797        2.7076251267
  C        22.4063650945        9.7229413177        2.6733075839
  H        22.5669043119        8.7144482389        2.4317039362
  C        23.0785465394       10.1656091617        3.9623871699
  C        22.7582774639       10.4858046891        1.3992196366
  C        22.1103526872       10.4231149584        5.1162823385
  H        23.8265878171        9.4420110971        4.2839984957
  H        23.6681522850       11.0875982130        3.8139680344
  H        23.7137655625       10.3638968184        1.1288923601
  H        22.5204248607       11.5392029183        1.4839465568
  H        22.0432476641       10.1241565901        0.6256324747
  C        21.4622804140        9.1443345892        5.7505209463
  H        22.7547267926       10.8085270046        5.9404515991
  H        21.3986497670       11.2282876135        4.8179251919
  C        20.6745834739        9.4414900169        6.9494723895
  H        22.2633747605        8.5289870018        6.1543530597
  H        20.7852980177        8.6095155530        4.9858895574
  C        19.4840158163       10.2990865505        6.5803913580
  H        21.2450709680        9.7383695899        7.7982662735
  H        20.1886899781        8.4775493590        7.2590284064
  C        18.1399284945        9.8118691589        7.1670158998
  H        19.7901482065       11.2983205346        6.7546827204
  H        19.3638586057       10.3453165325        5.5177135887
  C        16.9578438743       10.7294230668        6.7729573786
  H        18.2973858603        9.6253470274        8.2248010364
  H        18.0388204675        8.7961053643        6.7326549073
  C        17.3861000874       12.0609459685        6.1574148244
  C        16.5314265354       11.4071308141        7.9979950001
  C        15.8080818068       10.0538102961        5.9738719057
  C        17.0975098112       13.1469529621        6.9301689552
  C        17.9741382649       12.4615064879        4.9081009092
  C        16.6121429995       12.7824316699        8.1506249121
  C        16.0806820406       10.7949100255        9.1193272770
  H        16.2106952092        9.5510110121        5.1008377270
  H        15.4976658964        9.2310267714        6.5769950106
  C        14.6141178361       10.9183794504        5.6177882012
  S        17.6272007677       14.7253557034        6.2492295171
  C        18.1488771209       13.8485803095        4.7834827512
  H        18.1924283238       11.7154943845        4.1642924335
  C        16.2532798879       13.3650909433        9.3108295960
  H        16.0653166043        9.6680890871        9.1775309945
  C        15.6029711979       11.4118689856       10.2367673529
  H        14.9349717983       11.7710234979        5.1241582328
  H        14.0892210212       11.2162299951        6.5163941701
  C        13.5012033341       10.2593023197        4.7471012561
  C        18.5283979190       14.6027419892        3.5351185845
  C        15.6239413816       12.7187800592       10.3976294804
  H        16.4646770673       14.3566643653        9.4720907292
  C        15.1692162483       11.0123630822       11.4483301890
  H        12.6246682664       10.8626220717        4.8161281172
  H        13.2076395897        9.2299500854        5.0388051914
  C        13.8743011849       10.2079080794        3.2226704363
  C        18.3332993847       15.9415802305        3.2303318822
  C        19.1026797740       13.7780677167        2.4611904105
  C        15.1521630218       13.4064298499       11.6543692284
  C        14.8704987808       12.0520630625       12.2856953853
  S        14.9339126498        9.4626168513       12.1065507404
  H        14.7941126771        9.7705681277        3.1130174150
  H        14.1135877413       11.2034518033        2.8738080471
  C        12.8095846270        9.6706164085        2.2992806213
  N        17.9180392635       16.8982510419        4.1461112505
  C        18.5383309378       16.4090004412        1.9247082145
  C        19.3489782818       14.2508873162        1.1734976132
  H        19.3816850609       12.7935102502        2.6884068275
  C        13.8570101382       14.1876058230       11.4519938411
  C        16.2631064835       14.1397778841       12.4629775842
  C        14.5389267496       11.5957827889       13.5482370135
  C        14.5588915517       10.2240281925       13.6158972737
  H        11.9962006122        9.0804747452        2.6904178686
  H        12.2877125350       10.6015204564        1.9375916211
  C        13.3251654534        8.9171663726        1.0400182308
  S        17.9389742117       18.3233124246        3.3497453484
  N        18.2630801701       17.8386425248        1.8634641168
  C        19.0195719871       15.6906693089        0.7985177041
  H        19.9902059611       13.6446761848        0.5870255345
  H        13.9563196088       15.0690981555       10.7754716512
  H        13.4896110014       14.5959929748       12.4045012090
  C        12.6549571699       13.3367608557       11.0047488347
  H        16.7240176900       14.7866493599       11.7004469305
  H        15.7206887566       14.7371495839       13.1551289072
  C        17.3040489278       13.3354635433       13.2685208966
  H        14.2960047896       12.2730779898       14.4408677630
  C        14.3218417637        9.4334896584       14.8621088596
  H        12.5278879405        8.2395847299        0.6405607729
  H        14.2039301880        8.3133292819        1.3166906291
  C        13.5908069498        9.9551542890       -0.0597708598
  C        19.1378666514       16.3294624961       -0.4754539101
  H        12.8940162143       12.8009893269       10.0819071317
  H        12.4573999972       12.5762000561       11.7763394564
  C        11.4598957128       14.1730763532       10.6904255131
  H        17.8193646628       12.5811209588       12.7377209104
  H        16.8043530158       12.9320417232       14.1905488750
  C        18.5586914499       14.0365921751       13.7151284714
  C        14.3081650110        8.0513582404       14.9724257425
  C        14.2291985195       10.1590457652       16.1739166002
  H        14.0763487175       10.7993942494        0.3274987468
  H        14.2504467639        9.5125682603       -0.8006794362
  C        12.2813138507       10.2266172218       -0.8906462792
  H        19.2637507220       17.3918229353       -0.3939900085
  C        19.5283608574       15.8903455537       -1.7280040223
  H        11.6587908330       15.0313328175       10.0886280623
  H        10.9912479530       14.5117234598       11.6182902639
  C        10.3699169235       13.3171769074        9.9972447064
  H        19.0531293145       14.6727635027       12.9004659580
  H        18.1669475799       14.7173437987       14.4441513384
  C        19.6757807099       13.1514794493       14.3526790187
  N        14.4157977081        7.1007673522       13.8979956199
  C        14.0015978737        7.4062577079       16.1406038055
  C        13.8759727227        9.4878758908       17.3664581869
  H        14.1810994316       11.2734351160       16.2371303281
  H        12.1665511812       11.3116269480       -1.0350343973
  H        11.3644050840        9.9258226022       -0.4309675971
  H        12.2834326495        9.9614448953       -1.9365865448
  S        19.8078470652       14.2223473733       -2.1897633982
  C        19.6032088973       16.9159682590       -2.7977888520
  H        10.7525899704       12.7640328934        9.1747980241
  H        10.0854309155       12.5470605070       10.7286523821
  C         9.0772516924       14.1079934477        9.6987568420
  H        19.9923447302       12.4899078412       13.5116717522
  H        19.2725015621       12.3457873044       14.9873673569
  C        20.8155901651       13.8816503619       15.0349036418
  S        14.3671597330        5.5421077697       14.4847950416
  N        14.0032246433        6.0266530676       16.0255977068
  C        13.7399580304        8.0116155521       17.3542319520
  H        13.6526894250       10.0940573065       18.2560343050
  C        19.9348217580       14.9369871322       -3.8235749216
  N        19.8718715394       16.2589787183       -3.9364974195
  O        19.1666882991       18.0504743583       -2.6618932158
  H         8.8006033316       14.4063000727       10.6827796845
  H         9.2735184831       14.9791296299        9.0307782661
  C         8.1777004027       13.1034105299        9.0827664400
  H        20.5519336797       14.8544000921       15.4067841633
  H        21.2152685535       13.2469428619       15.8733820344
  C        21.9732806984       14.1685546177       14.0710348022
  C        13.3487476590        7.2032124207       18.4637288456
  S        20.5301007160       14.0952013875       -5.2378056043
  C        19.9906766150       17.0413698073       -5.1688502530
  H         8.6507886466       12.7193574584        8.1842799625
  H         8.0839365113       12.2790890949        9.7797748468
  C         6.7986894282       13.7803663668        8.8413443301
  H        21.6065101473       14.0645843994       13.0773436953
  H        22.7639429000       13.5081922645       14.2247181934
  C        22.5561349585       15.6357342162       14.2908826715
  H        13.6045905528        6.1523028549       18.2944436322
  C        12.7475134956        7.4414714780       19.6409841000
  H        20.4217608828       16.4865989958       -6.0549786486
  H        20.4524690783       18.1004409041       -5.0975674218
  C        18.6368408937       17.2424140513       -5.6542240586
  H         6.3197269099       13.4185309917        7.9702717064
  H         6.7937086091       14.8653541811        8.8526847619
  C         5.9012773531       13.5734495130       10.1002159717
  H        22.5966622756       15.9861517715       15.3418500017
  H        23.5512272273       15.5540474579       13.8640930965
  C        21.7868949843       16.6922063174       13.3865807316
  S        12.2786084809        9.0213675167       20.1997984758
  C        12.5899802531        6.4155374212       20.6391520700
  H        18.0200645037       17.6941330643       -4.9655662099
  H        18.1909466412       16.2156355344       -5.9070147465
  H        18.6321837222       17.7707593405       -6.5780782176
  H         5.9773119471       12.5033753099       10.4654511985
  H         6.3378824919       14.2038706548       10.8775353272
  H         4.9197298560       13.9977588515        9.9934615975
  H        20.6809318259       16.7447139890       13.6007474313
  H        22.1785093923       17.6770332087       13.5257171925
  H        21.9128797650       16.3401990127       12.3388937461
  C        11.7768427194        8.2967954147       21.6563727031
  N        12.0660906506        6.9566691515       21.7455775213
  O        12.9849209739        5.2513759092       20.4312213400
  S        11.1104130975        9.0539373440       23.0851423153
  C        11.7975856715        6.2717354369       22.9869177819
  H        11.8220004889        5.1917723267       22.6635256284
  H        10.8424279395        6.4361047560       23.3417646450
  C        12.9547682312        6.4781715948       23.9578391701
  H        12.7524296134        5.8505547006       24.8347665633
  H        13.1934470142        7.5328225754       24.2321397067
  H        13.9357621363        6.1263566852       23.5669737832
