352
 i =    80600, time =    80600.000, E =        25.1300077429
  H        10.7397572862        6.9876663481       31.0177428248
  C        11.6789596732        6.6887494404       31.5006199662
  H        12.3142509069        7.5079480189       31.8475615732
  C        12.5039443499        6.0445716621       30.3643221195
  C        11.4281447723        5.6905638844       32.6975756781
  C        11.6822806322        5.1485616166       29.5400543066
  H        12.9607085498        6.8057079845       29.7442570677
  H        13.2727068643        5.4127790349       30.7860053064
  H        10.4120747493        5.6814542378       33.0212930989
  H        11.5497271026        4.6582637485       32.3579679826
  H        12.1862830723        5.7963587416       33.5091736595
  C        10.5652830327        5.7845726700       28.6094289832
  H        11.3548162093        4.3133677623       30.1829933119
  H        12.4299176370        4.6649882215       28.8477588767
  C        10.8607263810        5.8218681807       27.1025520183
  H         9.5961233908        5.2923158089       28.9301760590
  H        10.4419277850        6.8744023622       28.8616476972
  C         9.8464376757        5.2461436816       26.1382025753
  H        11.8630672690        5.4742402908       26.8973548349
  H        10.9575252564        6.8843635166       26.7341356594
  C         8.5353597951        5.9587679268       26.0476896691
  H        10.2459447299        5.2252967202       25.0988260681
  H         9.6582679511        4.2516075223       26.4858127961
  C         7.3673921907        5.1325822884       25.3144454460
  H         8.1717459117        6.1696407119       26.9791225828
  H         8.7021179748        6.9680888453       25.5852591703
  C         6.9704404936        3.7966291786       25.9494430834
  C         7.9136371556        4.4219609897       24.1317662393
  C         6.1003961763        5.8535317150       24.8995489313
  C         7.3863275424        2.6734444729       25.2305346401
  C         6.5386503120        3.3771124250       27.1955283811
  C         7.8766394829        3.0826973414       24.0155711131
  C         8.4296795506        5.1317766197       23.0807350024
  H         5.5652058196        5.1571486307       24.2305306734
  H         6.2297020935        6.7810346172       24.3053383285
  C         5.1935194670        6.2594401598       26.0128887983
  S         7.1978667958        1.1803440894       26.0933322226
  C         6.5445449528        2.0313327539       27.3729664268
  H         6.2049749628        4.0870312991       27.9429342694
  C         8.1609785344        2.5503840245       22.7815383903
  H         8.5898291392        6.1750213060       23.1599484448
  C         8.7383944990        4.6061631828       21.8317713389
  H         4.9904403892        5.2695664513       26.4767240605
  H         5.8220147347        6.7829130711       26.7064393645
  C         3.8440775648        6.8340191151       25.4576661700
  C         6.2347645931        1.3294312026       28.6799427408
  C         8.5747335092        3.2519443047       21.6496350935
  H         8.0535810414        1.5164751330       22.8258165685
  C         9.1864508724        5.0023171268       20.6381082924
  H         3.4201969620        6.0772067060       24.7206362407
  H         4.0079394009        7.6354376594       24.8958258899
  C         2.6675654187        7.2081138121       26.5365000385
  C         6.2769123921       -0.0657755332       28.9605598511
  C         5.9983474219        2.2062699693       29.8670505343
  C         8.7351980039        2.6134014607       20.3649582785
  C         9.1302989706        3.9246636414       19.7366515498
  S         9.6531574065        6.4389756498       19.8991680766
  H         1.8214447970        7.0911119499       25.8106169964
  H         2.7247090980        8.3402715148       26.6573557738
  C         2.4826632224        6.2434704102       27.7046596101
  N         6.4084124919       -1.1013037478       27.9748985520
  C         5.9662567468       -0.5914148483       30.1878509288
  C         5.6619441038        1.6910672503       31.0839308893
  H         6.0096259423        3.2829879588       29.7399627341
  C         7.4904026793        1.8715088398       19.8627866697
  C         9.9787456308        1.7041750647       20.3178108960
  C         9.4641312160        4.3178222432       18.4224799482
  C         9.8154446040        5.6606451714       18.3444649039
  H         2.6184097553        5.1873416622       27.4396263800
  H         3.3062091193        6.5375070158       28.4032587313
  C         1.1410172913        6.3393916426       28.3911575927
  S         6.3200902813       -2.5516471023       28.8024385418
  N         5.9714123203       -1.9799442594       30.3012131633
  C         5.6367718392        0.1873043340       31.3311188788
  H         5.5325132914        2.4712650733       31.8048257537
  H         7.2593037665        1.1409281239       20.5897519127
  H         7.7307037226        1.2485013721       18.9774792096
  C         6.3110559893        2.8034333018       19.5881403634
  H        10.0799603286        1.1193982807       19.3800810516
  H         9.9684190587        1.0651280463       21.2822525814
  C        11.3028012462        2.4244502250       20.6041303052
  H         9.6542575628        3.5499206213       17.6530788949
  C        10.1932904523        6.3937648260       17.1407352860
  H         0.3090734684        6.3612692165       27.6843088413
  H         1.0531635941        7.2575108108       28.9693096648
  C         0.9785558518        5.1909413217       29.3352029447
  C         5.2747224222       -0.4442560933       32.5105818492
  H         6.5947311643        3.5312911227       18.7647944181
  H         6.1372572242        3.4142771561       20.4449467217
  C         4.9458752152        2.1504558890       19.3460950115
  H        11.2870704513        3.3016389654       21.2781205241
  H        11.7511457505        2.7362073856       19.6616216741
  C        12.4632607421        1.5583276225       21.1732690731
  C        10.2621657748        7.7820259345       17.0220723334
  C        10.4072679173        5.6074396001       15.9071449091
  H        -0.0903800091        4.9926893737       29.4681640040
  H         1.4571455371        4.2652932543       28.9123779234
  C         1.7281599670        5.4766491486       30.6170283244
  H         5.1739478184       -1.4795179109       32.5734200920
  C         4.9573736796        0.0788270584       33.7557030019
  H         4.1276704699        2.9079178068       19.4639106524
  H         4.7503810929        1.4341310287       20.1475202926
  C         4.9648655277        1.3489751377       18.0847104025
  H        12.2339591804        1.0197582551       22.0754484403
  H        12.7320295320        0.8511007000       20.4168401993
  C        13.6685745999        2.4381815000       21.5413906343
  N        10.0422522092        8.6335275810       18.1350206267
  C        10.6390067744        8.4776331471       15.9015712872
  C        10.7339029836        6.3028816948       14.7262286460
  H        10.3987442574        4.5310929261       15.9408504567
  H         1.4444535988        6.4828125952       30.9410446833
  H         1.2888488597        4.8306375195       31.4331786904
  H         2.8326762844        5.2799273608       30.5455284617
  S         4.7156833657        1.7158137741       34.1606082352
  C         4.8727858871       -0.8550316360       34.9113928166
  H         5.5883006848        1.7761624622       17.2905694639
  H         5.4240308333        0.4381354475       18.4826089299
  C         3.6507689874        1.1601610577       17.3786049444
  H        13.3192014757        3.3064209562       22.1377392729
  H        14.1188181499        2.6501472196       20.5479493237
  C        14.7591256251        1.7403738654       22.3422072839
  S        10.2790975511       10.1854909749       17.5959170419
  N        10.6260107386        9.8739377054       16.0573767762
  C        10.8419124540        7.8036333937       14.6771727691
  H        10.9366979404        5.6278755192       13.9111661808
  C         4.1674882670        1.1883796184       35.7657689594
  N         4.3928035166       -0.1719995116       35.9580138272
  O         5.2810080265       -2.0366503696       34.9239385312
  H         3.7528721919        0.6148058083       16.4646251638
  H         3.3203365425        2.1763116262       17.0801515322
  C         2.7114225638        0.4554098509       18.3558299406
  H        14.3357709098        1.2546367558       23.2102560453
  H        15.2189513839        0.8825007473       21.8115686395
  C        15.8202980395        2.6933137125       22.7468344456
  C        11.1651106271        8.5734497821       13.5206088730
  S         3.7784480516        2.1088319887       37.1552807641
  C         4.1851754443       -0.8597344711       37.2411273494
  H         3.1266733551        0.2692896631       19.3671304241
  H         1.8973532530        1.1465827707       18.5732865479
  C         2.1228789732       -0.8703198847       17.7280803643
  H        15.4648974387        3.5685701510       23.2911610276
  H        16.0755576673        3.0984926778       21.7798250327
  C        16.9940036266        2.0596009713       23.4919574084
  H        11.1260610516        9.6549404824       13.7059538863
  C        11.5482109092        8.2226819826       12.1941378245
  H         3.5008378256       -0.3877858608       37.9765669063
  H         3.6008069347       -1.6645372532       37.1071530395
  C         5.4853264199       -1.3742147219       37.8609770056
  H         1.3739541377       -0.5361642932       17.0155090890
  H         1.4586805320       -1.3494728360       18.5210518125
  C         3.0867801783       -2.0146159637       17.3160410702
  H        17.2481698715        2.6284038864       24.3768638324
  H        16.6832546730        1.1263753598       23.9082928730
  C        18.2433409933        1.8071424557       22.5979415659
  S        11.9010471152        6.6222440533       11.6178307613
  C        11.7620953955        9.2736091922       11.1599417961
  H         6.3078001906       -0.8204878540       37.4889932751
  H         5.5303268196       -0.9400785425       38.8893948803
  H         5.6711549931       -2.4473469989       37.8797933045
  H         3.8242964515       -1.5908668666       16.6737167136
  H         2.6048423109       -2.6529643400       16.5805813394
  H         3.6291640427       -2.6036421984       18.0624897763
  H        18.6750832929        2.7260610088       22.2352434761
  H        18.1493237632        1.0350598882       21.7926701919
  H        19.1010053283        1.4851081777       23.3160559755
  C        12.5205843519        7.2996125761       10.1520174274
  N        12.3128502886        8.6561021604       10.1082194710
  O        11.5763448593       10.4315038073       11.3711742456
  S        12.8197107444        6.4445134913        8.6259945687
  C        12.4347441480        9.4118054509        8.8264097467
  H        12.9563036520       10.3526673830        9.0490264571
  H        13.0994682166        9.0696106779        8.0783423749
  C        11.0230633824        9.5585492240        8.0996262179
  H        10.2291178906        9.7142368960        8.8012527799
  H        11.0983241290       10.4248391345        7.4268391983
  H        10.7170999516        8.6812006665        7.5555635399
  H        21.3946417610       10.4729564424        2.8980888188
  C        21.9965167267        9.5315962502        2.9825920736
  H        21.3237541730        8.6848756990        3.1028764917
  C        22.9775968282        9.5548051329        4.1904127449
  C        22.6421507129        9.2236892664        1.6000111428
  C        22.2823214537        9.7809940074        5.4830108793
  H        23.4880381863        8.6243914874        4.3098220350
  H        23.6985536853       10.3533641727        4.0650491843
  H        23.2365773405       10.1981185102        1.3227678135
  H        21.7856994644        9.0714601540        0.8760769554
  H        23.4436419976        8.4495723132        1.5479762924
  C        21.4936180057        8.5154138748        6.0243707040
  H        23.0729820817       10.0767385304        6.2380856821
  H        21.8071781445       10.8045227794        5.3426747263
  C        20.5141929016        9.0174795746        7.0864738400
  H        22.1732852434        7.7077058859        6.4434300050
  H        20.8625922037        8.0967522627        5.2361448479
  C        19.1339482875        9.2624024475        6.5401179302
  H        20.8422553437        9.9330774430        7.4931398427
  H        20.4604767142        8.3734878990        7.9527172095
  C        18.0953742761        9.7708271100        7.5494061010
  H        19.2427141857       10.1133348300        5.8575627154
  H        18.7046457854        8.4621205818        6.0058107122
  C        16.8800034091       10.4804919212        6.9592446363
  H        18.6345179546       10.4347070757        8.2759061628
  H        17.8136953792        8.9550615459        8.1187648795
  C        17.2302569848       11.8036008631        6.1867087027
  C        16.3662241766       11.2832110208        8.0876007168
  C        15.6590804617        9.7953257774        6.1698347373
  C        17.0241304030       12.9401072012        6.9391831723
  C        17.7113704664       12.0895195416        4.8918952918
  C        16.4829727291       12.6451404998        8.1435724733
  C        15.7912311466       10.6811575711        9.1792423682
  H        16.0188008205        9.2849955033        5.2537975808
  H        15.2281796572        9.1009437473        6.7756131790
  C        14.5203563923       10.8248669326        5.8669027958
  S        17.5000924807       14.3835870865        6.1084328664
  C        17.8555828611       13.4536696295        4.6990834467
  H        18.1053658379       11.2410075438        4.2917657742
  C        16.0374950408       13.3174482124        9.2683402211
  H        15.7542842528        9.6089002290        9.1150321945
  C        15.4269735016       11.3253666990       10.3073269102
  H        14.8524076266       11.6408554807        5.3032319041
  H        14.1222250669       11.1666768387        6.7556780395
  C        13.4225195140       10.2774061720        4.8932277924
  C        18.4459659862       14.0494347237        3.4680170344
  C        15.4660874595       12.6608049112       10.3679059193
  H        16.1614478597       14.4002391926        9.4017638049
  C        15.0136142170       11.0046728745       11.5615961752
  H        12.6935020261       11.0606248534        4.7630559356
  H        12.9152791987        9.4138174547        5.3144747204
  C        13.9278718259        9.8717464171        3.4914096759
  C        18.4750810806       15.4563455523        3.2029256800
  C        18.7797366197       13.1766965032        2.3466120956
  C        15.0982542970       13.4433759074       11.5899299674
  C        14.7255919169       12.1333647063       12.3428309445
  S        14.8229277445        9.5024031096       12.4007042299
  H        14.5399198730        8.9382101022        3.5006130949
  H        14.6371173606       10.5850593925        3.0012917637
  C        12.6924432178        9.7488249067        2.5297629663
  N        18.1131477971       16.5021181642        4.1180442526
  C        18.8311667954       15.9851314147        1.9703241528
  C        19.0312518160       13.7057207075        1.0772683336
  H        18.7221866394       12.1069016337        2.4165523107
  C        13.7988964466       14.3546813187       11.3711274876
  C        16.2455492365       14.2041457528       12.2640432891
  C        14.3809787915       11.7556142626       13.6092141913
  C        14.3601442797       10.3688979361       13.8144507443
  H        11.8644003108        9.2040443906        2.9980303984
  H        12.3341613526       10.7575892011        2.2820322547
  C        13.0676177203        9.1560840402        1.1668711673
  S        18.4097219017       17.9297225745        3.4611142837
  N        18.8855544484       17.3353579592        2.0353093396
  C        19.1434355759       15.1966785636        0.8286056491
  H        19.2381988332       13.1067207907        0.2120703393
  H        14.1188891246       15.2495811184       10.7429015056
  H        13.3315540105       14.7546868344       12.2973993102
  C        12.5320444626       13.6016391668       10.9310307841
  H        16.4151917212       15.0974336081       11.5810808535
  H        15.7835813086       14.5849824361       13.1857159124
  C        17.5540435968       13.4852900122       12.5485590235
  H        14.2944675339       12.5268593557       14.3813983419
  C        14.1180710904        9.6654907863       15.0408607236
  H        12.5879536799        8.2422598874        0.9111951857
  H        14.1220674545        9.0165248684        1.1006367552
  C        12.8507561910       10.2065600702        0.0783749929
  C        19.5972594879       15.8455344487       -0.4006613976
  H        12.7542757005       13.0374934302        9.9999398311
  H        12.2066154298       12.8653288642       11.7195334853
  C        11.3064508198       14.4820220376       10.5752705119
  H        17.8787427734       13.1260079449       11.6019276175
  H        17.3498107220       12.5871184178       13.0797443304
  C        18.5297453868       14.4280710468       13.3051141689
  C        14.1426353712        8.2689543877       15.1523234253
  C        13.8968532216       10.4023356342       16.2745330546
  H        11.8374237170       10.3162845538        0.0184762749
  H        13.3444712788       11.1341859834        0.3474360718
  C        13.2228435391        9.8071820959       -1.3186975401
  H        19.4735387208       16.8424752774       -0.3762321516
  C        19.8148921343       15.3685532056       -1.6768991004
  H        11.4569695098       15.1424283478        9.6925042651
  H        10.9474580699       15.0389351363       11.4449822319
  C        10.1273768777       13.6301800536       10.2683397485
  H        18.7793488699       15.1778398281       12.5738844379
  H        18.0548049956       14.8855698000       14.1562215474
  C        19.8201451066       13.7077532637       13.6949523758
  N        14.2724440985        7.3613727750       14.0825558703
  C        13.8619408105        7.5932445221       16.3333921220
  C        13.5146266731        9.8355273575       17.4793975796
  H        13.9823803825       11.4532543445       16.2212204874
  H        14.3260935353        9.6872199238       -1.3895160416
  H        13.0063430157       10.6319243724       -1.9657549499
  H        12.7838151405        8.8505139282       -1.7175343373
  S        19.9720408446       13.8307818603       -2.3145204723
  C        19.9078515441       16.4798870380       -2.7114139686
  H        10.4843846053       12.9268013824        9.5631172095
  H         9.7194450057       13.1629343782       11.1898750530
  C         9.0337701644       14.4121384972        9.6760587382
  H        19.9236217819       12.8048539150       13.0802675662
  H        19.7344073028       13.4309987882       14.7250949832
  C        21.0842238636       14.6184775555       13.5916020453
  S        14.2734155828        5.8093443819       14.6409099935
  N        14.0872568869        6.1545534275       16.2496933816
  C        13.6020025697        8.3181836024       17.5403470669
  H        13.3595871658       10.3493441102       18.4141945372
  C        20.3642247560       14.5748246970       -3.8355829407
  N        20.2023846585       15.9132250913       -3.8899178835
  O        19.7280852925       17.6809127627       -2.4459915668
  H         8.5547484627       14.8597246645       10.5315779123
  H         9.3590770595       15.2543987731        9.0876863071
  C         8.1135350538       13.5144245140        8.8476302258
  H        21.9872913773       14.0397568659       13.7214106158
  H        21.1628891960       15.0628394190       12.5736741041
  C        21.2274210114       15.6682814818       14.6679350607
  C        13.2464158670        7.6041783517       18.7221358252
  S        20.6601565842       13.7688672162       -5.3200449187
  C        20.3017377972       16.7066773670       -5.0911331746
  H         8.4212690000       13.3426777809        7.8707679235
  H         8.1195846468       12.6050002880        9.4098957457
  C         6.6725331329       14.0530108148        8.8976084111
  H        21.1032115742       15.1340940420       15.6329603326
  H        20.3413134377       16.2890568027       14.6209489617
  C        22.4460189435       16.4544543182       14.5593995968
  H        13.4725073061        6.5121210716       18.5803792191
  C        12.7468996932        7.9317048937       19.9743994627
  H        21.1241708997       16.3783343727       -5.6574938545
  H        20.3598997904       17.8209318774       -4.8911504045
  C        18.9700876758       16.6277043222       -5.8239008570
  H         6.0001274046       13.6000949225        8.1427645646
  H         6.6694641489       15.1379328608        8.7934676928
  C         6.0635416614       13.8169904443       10.2625628481
  H        23.3594718011       15.8604335836       14.7046190918
  H        22.4823052888       16.8171623079       13.5690901738
  C        22.4464051355       17.7737305709       15.4634589740
  S        12.1549832665        9.5303886167       20.5062914132
  C        12.6356519821        6.8519869688       20.9875167966
  H        18.1253533539       16.8548721794       -5.1743050541
  H        18.9276251636       15.6122979274       -6.2778867648
  H        18.7849074119       17.3948132582       -6.5676421751
  H         6.1667862006       12.7743293575       10.6263011396
  H         6.3193157915       14.4884455789       11.0777054902
  H         5.0326632323       13.9548558503       10.0670562009
  H        22.0577272256       18.6042347593       15.0085025342
  H        21.8637696114       17.6803701595       16.4007972556
  H        23.4587257421       17.9712593573       15.8384720877
  C        11.8639105159        8.7103486911       22.0653356487
  N        11.9877449537        7.3665687284       22.0622856745
  O        12.8420255097        5.6388454523       20.6823197551
  S        11.0352423638        9.3574653258       23.3946577051
  C        11.7349123436        6.4647000869       23.2196780667
  H        11.5616667778        5.4455243830       22.9718055757
  H        10.8140700313        6.6704613761       23.7665771332
  C        12.8941903275        6.4545557036       24.1777846063
  H        12.6175500519        6.7930605514       25.2139801385
  H        13.6280901541        7.2608919092       23.8796334138
  H        13.3978418751        5.5290162091       24.2796077291
