352
 i =    20000, time =    20000.000, E =        24.9959955035
  H        12.1166134884        7.1761935242       32.4258900209
  C        11.6042813061        6.2089479191       32.3959222168
  H        12.3723844167        5.4160776977       32.1703200429
  C        10.4994178564        6.1334240097       31.3797662264
  C        10.9306781703        5.9942219965       33.7999640267
  C        11.1695518325        5.9839614211       30.0469812665
  H         9.8696319597        5.2015042277       31.4544155781
  H         9.9362674159        7.0734770326       31.3814735638
  H         9.9025391510        6.3863297442       33.6743507461
  H        11.1859829263        4.9567772448       34.0577300657
  H        11.3040777604        6.6678612657       34.5146052979
  C        10.2225915793        6.1215705815       28.9068015692
  H        11.3580732391        4.9330090623       30.0330533210
  H        12.1017751306        6.5487502297       29.9978395417
  C        10.8417826981        5.7464911678       27.5477651842
  H         9.2830755836        5.5806056655       29.0475244064
  H         9.8509474567        7.1877503552       28.8673402304
  C         9.7386889005        5.3518284422       26.4071622125
  H        11.5911378784        4.9954281553       27.6640686217
  H        11.4884914894        6.5677909000       27.1944252594
  C         8.6119365927        6.2895874202       25.9896037166
  H        10.3330557743        5.2648961905       25.4958964350
  H         9.3827663166        4.3814801913       26.5979569034
  C         7.4308239478        5.5315922707       25.3056386677
  H         8.3110901000        6.6859319647       26.9925008922
  H         8.9720820095        7.0766520215       25.3640845062
  C         7.0473334529        4.2697026965       26.0241543720
  C         7.9303595915        4.8116846015       24.0762794770
  C         6.2770972979        6.4674000269       25.2161415528
  C         7.2705058484        3.1521028018       25.2281058203
  C         6.4925147232        3.9722831182       27.2659027257
  C         7.7533061448        3.4619166721       23.9711024721
  C         8.4105841166        5.5197861141       23.0224602291
  H         6.5919901486        7.1122622586       24.4494252082
  H         6.2086527201        7.0550360408       26.1171651246
  C         5.0522487833        5.8218266079       24.7232551770
  S         6.9135608937        1.7373782004       26.0403096715
  C         6.4174404508        2.6023572590       27.4326201497
  H         6.2616656279        4.7978400177       27.9631706470
  C         7.9843481908        2.7711676457       22.7747851371
  H         8.5728573720        6.5595503125       23.0327106640
  C         8.7535301261        4.8723365985       21.8512521089
  H         5.2009519749        5.4599515740       23.7076270416
  H         4.7701197071        4.9625065575       25.3687647531
  C         3.9499594757        6.8258635296       24.6673157109
  C         5.9997262901        1.8903791433       28.6576778404
  C         8.4949234541        3.5424693846       21.6568106676
  H         7.8168117396        1.7431436403       22.6452688915
  C         9.1848781589        5.2420669463       20.6506997865
  H         3.2474155844        6.5803965061       23.8952377351
  H         4.3834669272        7.8288977548       24.3945883049
  C         3.0153889353        6.9613392432       25.9144718347
  C         5.9849132184        0.5062654785       28.8755694165
  C         5.4349891306        2.7603478496       29.7602125851
  C         8.7456674970        2.8401868135       20.3856898818
  C         9.2296259502        4.2038021935       19.7374401796
  S         9.3797450188        6.7458646218       19.8508359730
  H         2.3021635965        7.7279326386       25.8275928944
  H         3.6481027489        7.3415281195       26.7318301347
  C         2.3653739587        5.7512484255       26.3301151531
  N         6.2157441654       -0.4963359015       27.9039595553
  C         5.6506954616       -0.0023923020       30.1459314982
  C         5.1221824282        2.2281173273       30.9999025912
  H         5.3719313527        3.8151220171       29.7259226881
  C         7.4278616732        2.1981700959       19.8213395341
  C        10.0063326282        1.9308017213       20.5958042892
  C         9.6022794832        4.5921341572       18.4824758994
  C         9.6787798814        5.9613504088       18.3371915626
  H         1.7753092779        5.4757443817       25.4979379710
  H         3.0659694711        4.9108893940       26.3091361980
  C         1.5067522528        5.8889525485       27.5646480000
  S         6.0588762112       -1.9438086200       28.6816998656
  N         5.7326568168       -1.4164942441       30.2218416853
  C         5.2703357892        0.7611539180       31.2613895518
  H         4.7485522347        2.9063691962       31.7241599111
  H         6.7273909327        1.8204733318       20.6193312341
  H         7.5934139745        1.3645259124       19.1073605193
  C         6.6455424170        3.2799677246       19.0856494184
  H        10.1354188398        1.3943573512       19.6854269156
  H         9.8578686499        1.1407353694       21.3091744121
  C        11.2785265150        2.6562873424       21.0216878588
  H         9.5861207776        3.9018953603       17.6348931141
  C         9.9253598646        6.6662544994       17.0446239451
  H         0.8432257228        5.0586305290       27.5630534242
  H         0.8469836449        6.7362225637       27.5520874400
  C         2.3233180402        5.8537857564       28.8225704882
  C         5.0269872834        0.1327571171       32.5243748585
  H         7.1709913526        3.6610185511       18.1737021106
  H         6.3988182619        4.1785809463       19.6387458538
  C         5.3707364578        2.5655895955       18.5411274985
  H        11.1613544484        2.8893782458       22.0754354575
  H        11.5387651010        3.5629738149       20.4418477387
  C        12.5040931872        1.7609993545       20.8478654461
  C         9.9373040102        8.0690515176       16.9047455483
  C        10.0598361640        5.9124267366       15.7878681195
  H         2.8596491618        4.9007394451       29.0170843455
  H         3.0296683886        6.6536876800       28.8470176962
  C         1.4523330761        5.9390787356       30.0961739360
  H         4.9165521947       -0.9187664869       32.4092868441
  C         4.7265628814        0.4438797047       33.8299950032
  H         4.8038034962        2.1089247976       19.3241709080
  H         5.6321043673        1.7265148187       17.8531551037
  C         4.4183769463        3.4952915429       17.7099029607
  H        12.3828928152        0.9725473463       21.6350038923
  H        12.4463858975        1.2031406627       19.9652935645
  C        13.8198213581        2.4898557734       20.8830022156
  N         9.7097154112        8.9946610534       17.9634321002
  C        10.2738114127        8.7786341688       15.7941934891
  C        10.1931183895        6.6217689054       14.5425637445
  H         9.9972406972        4.8751022140       15.7460750220
  H         1.2416157573        7.0366968406       30.1956203306
  H         0.5463557276        5.4515359343       29.9921739409
  H         2.0068779995        5.6113955440       30.9243351556
  S         4.4909281606        2.0766215093       34.2953809293
  C         4.6061640329       -0.5714782423       34.8939164223
  H         4.5825575319        4.5441827732       18.0922795629
  H         4.8518458636        3.4784223848       16.7373465402
  C         2.9567791263        3.0327611214       17.7364782723
  H        13.8158339229        3.2771411908       20.1881524760
  H        14.5489936110        1.7622213565       20.4931857586
  C        14.2540616644        3.0099977534       22.3080656402
  S         9.7646118713       10.4902614850       17.4653993713
  N        10.2852973515       10.1967872655       15.9653714195
  C        10.4369813420        8.1149164631       14.5774807746
  H        10.3040280329        6.0437619845       13.7016889608
  C         4.3691876684        1.4499830138       35.9574178677
  N         4.3161440964        0.0903603250       36.0120322335
  O         4.5719143749       -1.8050489124       34.7511959201
  H         2.3689613190        3.8365261315       17.2121230494
  H         2.7503340581        3.0244054222       18.7912627432
  C         2.6968170038        1.6438396687       17.2520832299
  H        14.8377866129        3.9689905621       22.3015194081
  H        13.3083056283        3.3669176708       22.8170962853
  C        14.8694843834        1.9566387580       23.2312975909
  C        10.6739859111        8.8528389377       13.3784640729
  S         3.8719976163        2.2798179432       37.4335265252
  C         4.1165389474       -0.7489688148       37.1883984554
  H         2.1018220487        1.8030747724       16.3673548480
  H         3.6616117700        1.1517094465       17.0478934048
  C         1.9211551284        0.8338275296       18.2754327014
  H        14.6942169032        0.9151625537       22.7913597264
  H        14.3139508547        1.9598325293       24.1296602457
  C        16.3855138742        2.2861208703       23.4924523327
  H        10.6245329583        9.9163596550       13.5445885809
  C        11.2556876438        8.4820277994       12.2043106333
  H         3.4473066497       -0.4380805570       37.9512117232
  H         3.6889436630       -1.7014826106       36.9966564092
  C         5.4547336954       -1.0202790830       37.9267908961
  H         1.0105318106        1.1914923328       18.6495002160
  H         2.5270426168        0.7171266804       19.1712991759
  C         1.6289063405       -0.5451968128       17.6076092212
  H        16.3945401872        3.3208084822       23.6131654750
  H        16.7384077206        1.7688027883       24.3941174998
  C        17.3025493665        1.8937205411       22.3873763996
  S        11.8532359580        6.9268773095       11.6827932137
  C        11.4037110286        9.5130572433       11.1167302808
  H         5.3416424917       -1.2369140124       38.9265200131
  H         6.0281234790       -1.8750002022       37.5550000323
  H         6.1495752743       -0.2386898503       37.8044970462
  H         0.6195093751       -0.4773259124       17.2750509003
  H         1.7424213243       -1.4804113363       18.1987480185
  H         2.2574979342       -0.7137300141       16.7636798227
  H        18.3297447975        1.6436944167       22.6445277640
  H        17.3299752335        2.7379896226       21.6255552728
  H        16.9167926809        1.0018441880       21.9201407517
  C        12.3120067886        7.6728898992       10.0877935120
  N        12.0336972259        9.0103560752        9.9726282372
  O        11.0709808040       10.7163405937       11.3346316071
  S        12.9481252377        6.8971879384        8.6817359406
  C        12.2591253383        9.7656719904        8.7578765378
  H        12.2648520780       10.8522628710        8.9426901833
  H        13.1715768577        9.5890692362        8.3293943267
  C        11.1751423306        9.5025461383        7.6921134413
  H        10.3601826963        9.1400902401        8.2827536325
  H        10.8807907133       10.4727284029        7.1937354740
  H        11.2557800281        8.7481848976        6.9118099768
  H        20.7483466017       11.2065829750        2.9833630844
  C        21.5695477537       10.4895092323        3.1447783592
  H        21.1565854917        9.5616237451        3.3238152816
  C        22.5007323256       10.7315839065        4.3729137714
  C        22.4822259532       10.4374351045        1.9009900174
  C        21.8643592021       10.8935617919        5.7681016272
  H        23.1688299038        9.7892579486        4.6138957910
  H        23.2013816255       11.5207208306        4.2004703830
  H        22.7724023601        9.4059674748        1.8131996326
  H        23.3214535743       11.1554977579        2.1392726701
  H        21.9740672836       10.7986603861        0.9426074060
  C        20.6613334605       10.0567173555        6.0945215469
  H        22.5325323948       10.6557973215        6.6301997761
  H        21.5599922260       11.9909848994        5.9064843173
  C        20.1398129796       10.1337791839        7.5588810762
  H        20.8366258715        9.0413542932        5.7891503799
  H        19.8617406752       10.4798428766        5.3994490661
  C        18.8238608421       10.7888593805        7.6814334927
  H        20.8873142148       10.5546683752        8.2535829963
  H        19.9137823682        9.1326719747        7.9099232809
  C        17.6768438625        9.8611435548        7.0580149738
  H        18.6349521797       11.0202316872        8.7496900837
  H        18.9842706924       11.7680645402        7.1911901853
  C        16.3969687922       10.7472118905        6.9083387725
  H        17.4866232968        9.0205246817        7.7806831857
  H        17.9807446613        9.4793727938        6.1209693353
  C        16.8472553063       12.0275358609        6.1901791233
  C        15.9376383353       11.4678681441        8.1043820774
  C        15.3227569736        9.9390124143        6.1489596480
  C        16.6154103855       13.1671479544        6.9726054472
  C        17.4458046588       12.4212194227        4.9799142392
  C        16.0475635672       12.8212159396        8.1374043769
  C        15.3555897706       10.8515124653        9.2592470071
  H        15.8525718492        9.3955308046        5.3631375356
  H        14.7027355749        9.2468850030        6.7165314502
  C        14.3837844208       10.8687968478        5.3757174496
  S        17.2089659075       14.5841612195        6.2959418751
  C        17.6414548234       13.7152707119        4.8779870271
  H        17.7601719937       11.7103940779        4.3876305269
  C        15.6053348011       13.4693862026        9.2781373048
  H        15.2079951967        9.7381283588        9.2373819027
  C        14.9972226473       11.5449672643       10.3786519116
  H        15.1516030460       11.3159527141        4.6993452069
  H        14.0388025026       11.7715075675        5.9059129876
  C        13.2952552121       10.1224000348        4.5448727343
  C        17.9777864928       14.3984521088        3.5623627664
  C        15.1440421561       12.8690864887       10.4465342577
  H        15.7132537633       14.5177898379        9.1915596732
  C        14.6145510641       11.2016477607       11.6222549274
  H        12.3694196209       10.3945682552        5.0180287968
  H        13.3656355153        9.0305494786        4.6720737733
  C        13.2541333579       10.5182274260        3.0153455521
  C        17.9678871134       15.8069665909        3.3210680926
  C        18.3997349937       13.5106949144        2.4087535267
  C        14.8022663023       13.6394431974       11.7253896648
  C        14.4106955805       12.3609369432       12.3490459235
  S        14.3589049130        9.6816238660       12.4296929857
  H        14.2550573963       10.4776340223        2.5438892300
  H        12.7973568960       11.5082688611        2.8302649752
  C        12.6409135637        9.4071015997        2.1574335592
  N        17.6187338994       16.8241886059        4.2358752542
  C        18.3184021226       16.2872180716        2.0821073794
  C        18.7743865377       14.0579039220        1.1541548848
  H        18.3825306687       12.4261544799        2.5503595054
  C        13.6100740396       14.5752992981       11.3459156675
  C        16.0312149869       14.4682689008       12.2045446443
  C        13.8855937115       11.9404137978       13.6045072845
  C        13.9104215780       10.5992896359       13.8703278016
  H        13.4322971532        8.6632876927        2.1087948368
  H        11.7285212308        9.1012855176        2.6640911629
  C        12.2078349039        9.8072935014        0.7116532988
  S        17.7571395011       18.2304179153        3.5266165886
  N        18.2469937235       17.7159023946        2.0438460435
  C        18.6896144036       15.4894860093        0.9574581660
  H        19.0577210983       13.3847765926        0.3438428942
  H        13.7130883533       15.0560318271       10.4094176809
  H        13.3733405589       15.2747431781       12.1744689364
  C        12.2908800759       13.8038837754       10.9444938147
  H        16.1743090985       15.3065200739       11.5094061143
  H        15.7784776410       14.8999780080       13.1544992230
  C        17.2279441075       13.5320454823       12.4975374998
  H        13.7016405920       12.6950343489       14.3383115250
  C        13.6678020458        9.9159822528       15.2083235822
  H        11.4102933089       10.5021412201        0.6576944142
  H        12.0331147883        8.8842621454        0.0588952420
  C        13.2834182361       10.4252140755       -0.1273510210
  C        18.7803878976       16.1350492685       -0.3464884178
  H        12.4825685116       13.2546390008       10.1043122538
  H        11.9316752353       13.0395525533       11.6205079377
  C        11.0669091304       14.7044346086       10.7325706153
  H        17.6750794733       13.1038157455       11.5953911332
  H        16.9182539185       12.7133551611       13.2697830450
  C        18.4256456078       14.3628313659       13.0862066346
  C        13.6295749961        8.5259066824       15.4191121108
  C        13.5047294383       10.7025770238       16.4223260417
  H        13.4895577541       11.3922828575        0.2343212269
  H        14.2156953392        9.8679059806        0.1462712244
  C        13.0885926831       10.4400320775       -1.6030113527
  H        18.6541778562       17.1904313377       -0.3268811545
  C        19.0960061683       15.6067383870       -1.6001402230
  H        11.2566607118       15.2541143633        9.8192457076
  H        10.9800813300       15.2915728548       11.6038732339
  C         9.8216162097       13.8019944505       10.5653823629
  H        18.6214129693       15.0797180998       12.2424404736
  H        18.2633702960       15.0630280148       13.9123239497
  C        19.5827859159       13.4976293956       13.3542803328
  N        13.9860372145        7.5411881438       14.4799863492
  C        13.3982299564        7.8507747927       16.5992616991
  C        13.2419641045       10.0037677878       17.6224854906
  H        13.4618739131       11.7681405145       16.3287078867
  H        13.5466454520       11.3671077061       -1.9809422804
  H        12.0288943879       10.6905567333       -1.8049744754
  H        13.4482688722        9.6530744367       -2.2257249807
  S        19.6358739601       13.9398623611       -2.0741717989
  C        19.1850347450       16.6291917483       -2.6828691152
  H        10.0569358937       12.8625663689       10.0332651166
  H         9.4907761279       13.6941171502       11.6334554978
  C         8.7687994243       14.5180562342        9.8387314511
  H        19.8809901544       12.9554661418       12.4997788143
  H        18.9986307813       12.7785980507       13.9797414550
  C        20.7193425709       14.2305379951       14.0199804146
  S        13.8501337541        6.0491967624       15.0732181176
  N        13.4445169981        6.4590773728       16.5599344571
  C        13.1045133755        8.5820249094       17.7534708120
  H        13.0299879961       10.5943216951       18.5482590393
  C        19.6603537838       14.6243763002       -3.7183786780
  N        19.5721643131       15.9926515690       -3.8467374440
  O        19.1712461911       17.8800155369       -2.5198757805
  H         8.2883564953       15.2544987720       10.5273344866
  H         9.1459143947       15.0571717349        8.9700949770
  C         7.7468047353       13.5054224684        9.4262593424
  H        20.4361342893       15.0294307365       14.6799009500
  H        21.0722924665       13.3643278932       14.6993965831
  C        21.7291781487       14.9497106282       13.1281399998
  C        12.8994861777        7.8634809051       18.9585616010
  S        20.0263936464       13.7572558937       -5.2283725770
  C        19.4289074517       16.7828557230       -5.0964364726
  H         8.0946341662       13.0661002117        8.4825376592
  H         7.5671156842       12.8042653464       10.1981709749
  C         6.4398501961       14.2299392603        9.1573764174
  H        21.1582053283       15.3234226448       12.2547407932
  H        22.4291395315       14.2177315439       12.7733446232
  C        22.5157566544       16.1245446051       13.7051611700
  H        13.3262968056        6.8445433016       18.8927773971
  C        12.5045696532        8.1844509348       20.2390067459
  H        20.1705074401       16.5850368371       -5.8788178843
  H        19.7575721739       17.8254926997       -4.8695015511
  C        17.9977892319       16.7780857051       -5.6941617053
  H         6.0365185881       14.1149755789        8.1332350016
  H         6.5194492030       15.2746406788        9.1930802200
  C         5.3544353724       14.0107796245       10.1703659826
  H        22.8449718863       15.8104071931       14.7294016246
  H        23.4430890074       16.1792681417       13.1728931332
  C        21.8730781223       17.5170759490       13.7756193901
  S        12.0282226413        9.6627464935       20.8250776259
  C        12.4034915150        7.1311804499       21.2835528588
  H        17.8376485578       15.7451931703       -5.9243832548
  H        17.9788097499       17.4287967370       -6.5216787687
  H        17.1879509976       17.0743369447       -5.0169342973
  H         5.0351300239       13.0037719613       10.1675309692
  H         5.7290802733       14.2698407380       11.1574766506
  H         4.5258135312       14.6416747978        9.9944030311
  H        21.3895909631       17.7239868634       12.8664470771
  H        21.0336258153       17.3838636482       14.4261783392
  H        22.5812092186       18.3089748697       14.1169581000
  C        11.8677142428        8.9430923533       22.4495924831
  N        11.8865327121        7.5993275716       22.4000792098
  O        12.7288467011        5.9945972950       21.0500692656
  S        11.0780125877        9.6757247165       23.9081114453
  C        11.7108248811        6.6959846140       23.5297166380
  H        11.5936167721        5.7639292995       23.0828963877
  H        10.7807548482        6.8666041168       24.0281031996
  C        13.0122931787        6.6944850103       24.3395920055
  H        12.8749221386        6.0345416004       25.2085951429
  H        13.5002686107        7.6154524203       24.6044843048
  H        13.7188160099        6.1843741931       23.7169820408
