352
 i =    37700, time =    37700.000, E =        25.3550079202
  H        11.7368343954        7.1630893560       32.3929059706
  C        11.2658866063        6.1674536924       32.4431364960
  H        12.0654399906        5.4266036940       32.2291263241
  C        10.1393070018        6.1706901985       31.4161499605
  C        10.6988016733        5.7703098372       33.8042264486
  C        10.7298383642        6.2315059805       30.0750844686
  H         9.6913965041        5.1280990336       31.5726597846
  H         9.4541222335        6.9741152446       31.6094303576
  H         9.8986680877        6.4315998787       34.0757148293
  H        10.4307960555        4.7138003119       33.8707276410
  H        11.4571325111        5.9097622562       34.5591395857
  C         9.7660413296        5.7333362377       28.9913552619
  H        11.7658904284        5.8061264151       30.0199958120
  H        10.8206700611        7.3049097266       29.8279023891
  C        10.3961985198        5.9532375150       27.5769362302
  H         9.5936492177        4.7062654871       29.1693594590
  H         8.7810407985        6.2515833987       29.1289359898
  C         9.5638507970        5.2307875658       26.4902316593
  H        11.3836715006        5.5520361462       27.6568957882
  H        10.4962289169        7.0101616896       27.3551598636
  C         8.2762728966        6.0234153013       26.1581637655
  H        10.1246411192        5.1600238765       25.5778922894
  H         9.4718452591        4.2648765183       26.8637512234
  C         7.1522917678        5.2354706065       25.3955868949
  H         7.7533390784        6.5126168773       26.9938272647
  H         8.4320465126        6.8048367483       25.4408126046
  C         6.8786232370        3.9274615781       26.0852510865
  C         7.6958003274        4.5803923711       24.1375726668
  C         5.8599652098        6.1149965513       25.2095039821
  C         7.1729082117        2.8530135434       25.2895837154
  C         6.4501216367        3.6208390565       27.3817557008
  C         7.6554270553        3.2289521443       24.0803015471
  C         8.0696628885        5.2809766345       23.0112790943
  H         6.1090087579        6.8787211579       24.4936789870
  H         5.6023010206        6.5414490088       26.1604596477
  C         4.6053174546        5.3865730252       24.7275272970
  S         6.6728572646        1.3716739166       26.0293002171
  C         6.3012525358        2.2445524713       27.5219410129
  H         6.2737890780        4.4372908936       28.0327825809
  C         7.9860453542        2.6238334711       22.9188802695
  H         8.0658456764        6.3438813850       23.1601151235
  C         8.4942581278        4.6045541451       21.8500864608
  H         4.7877940692        5.0608824766       23.7054500639
  H         4.4703856060        4.3844978061       25.1454387566
  C         3.4244106099        6.2947281024       24.7975260390
  C         5.7963152867        1.5009156970       28.7104924517
  C         8.4832328449        3.2395455602       21.7769067293
  H         7.9687221696        1.5529685225       22.7717631656
  C         9.0403479950        4.9181798918       20.6245215454
  H         2.6445811111        5.9071888331       24.1472979537
  H         3.7304077176        7.1549342741       24.2033919896
  C         2.7942335664        6.5779348022       26.1830282880
  C         5.8568577659        0.0922756071       28.8926378117
  C         5.2983132018        2.3290594055       29.8309913874
  C         8.9093138743        2.5004361030       20.5168837410
  C         9.2795317470        3.7635803405       19.8062732240
  S         9.5054328011        6.3702197999       19.7347017995
  H         1.8675831818        7.1011346209       26.0577038353
  H         3.5625465880        7.1292615845       26.7218660829
  C         2.3825172979        5.3326316724       26.9571470895
  N         6.3132743788       -0.8675678388       28.0476679679
  C         5.5969462485       -0.4502948490       30.1629095625
  C         5.0638992039        1.8419218551       31.0616096016
  H         5.3933250590        3.4006877462       29.7238726414
  C         7.6791154486        1.8597534076       19.7670489840
  C        10.1199249707        1.5131319606       20.7405699101
  C         9.6575144879        4.1206199703       18.5119649370
  C         9.8499939928        5.4653867466       18.2960684136
  H         1.6372447847        4.6626061974       26.3516398494
  H         3.2370026449        4.6596563691       27.0308268539
  C         1.8889023329        5.5621457673       28.4254721354
  S         6.1391349834       -2.3290889436       28.7966114179
  N         5.7702128729       -1.7894536855       30.2261344110
  C         5.2494316162        0.3646143873       31.3378815369
  H         4.7401228049        2.5891648706       31.8700639651
  H         7.3508069782        1.0149549770       20.3880399383
  H         7.9128503007        1.4089270926       18.8413550749
  C         6.4941680996        2.8717845875       19.3344103677
  H        10.4835543215        1.2057775872       19.7308857064
  H         9.8110869505        0.6689608822       21.2440301306
  C        11.3854066609        2.1594658283       21.3455673632
  H         9.7173865742        3.4025636206       17.7455775626
  C        10.1212701593        6.2747553870       17.0285130161
  H         1.2543235813        4.6534435777       28.6351726115
  H         1.2275382039        6.3863326924       28.4100061557
  C         3.0948486607        5.9016556179       29.3950951702
  C         5.0391643044       -0.2000582986       32.6190157541
  H         6.7041660570        3.4048654367       18.3611288459
  H         6.3036251728        3.6425458210       20.0317548608
  C         5.1674965722        2.0919836437       19.2531462815
  H        11.3499247708        2.2687844875       22.4321585320
  H        11.3839687544        3.1907171523       21.0913952268
  C        12.7562621950        1.5801283656       20.9253883425
  C        10.2467246454        7.6712815028       16.9129027778
  C        10.2999810197        5.4567312604       15.8021178665
  H         3.9080425875        5.1984897115       29.1962853585
  H         3.5404788738        6.8710633528       29.2576417327
  C         2.6296339984        5.5741573253       30.8261995235
  H         5.2930789110       -1.1907716914       32.6037612577
  C         4.6604421735        0.2763515790       33.8477858244
  H         4.5343775148        2.3495086669       20.1053733653
  H         5.3544822848        1.0599911148       19.3573795118
  C         4.4858977221        2.3252659942       17.9009637631
  H        12.8751824851        0.7776472468       21.6679627589
  H        12.8289704366        1.1768091249       19.8984707359
  C        13.8074206433        2.6544599614       21.1209450347
  N        10.0836890579        8.6386154718       17.9467024742
  C        10.4699699322        8.2951393019       15.6943848134
  C        10.5772724005        6.0733745905       14.6008411989
  H        10.1997687050        4.3732814407       15.8051483493
  H         1.5901896037        5.8133269024       30.9282420901
  H         2.8077667975        4.5405681584       30.9911966448
  H         3.1753980550        6.1466646704       31.5712814643
  S         4.2856091124        1.8330907020       34.3115580311
  C         4.5440013390       -0.7114025700       34.9764672207
  H         4.5852962796        3.3564810960       17.5111015652
  H         5.1620002814        1.8197294963       17.1972396812
  C         3.0527554654        1.7732560574       17.7782765272
  H        13.4356629518        3.5818511154       20.7764639379
  H        14.6951096174        2.5925148181       20.4733656843
  C        14.2860535764        2.8033685253       22.5979885669
  S        10.1651979238       10.1231969846       17.2957177522
  N        10.4736025819        9.6728440762       15.7557182824
  C        10.7077615236        7.5718528329       14.4628404312
  H        10.7769975699        5.4993233953       13.7847866620
  C         4.0770327905        1.3151795496       35.9715062343
  N         4.1584192669       -0.0194603072       36.0873992108
  O         4.7887980710       -1.9122431538       34.9419098840
  H         2.9098915606        1.9854619119       16.7542726355
  H         2.4363227493        2.4334138301       18.3344189229
  C         2.8317784575        0.3165710600       18.1541439894
  H        14.9073530751        3.6925541479       22.5942152392
  H        13.4141968354        2.9998597831       23.2236408835
  C        15.1536797823        1.6902526684       23.1132455333
  C        10.9508675523        8.3017196416       13.2478605227
  S         3.3951118450        2.2292710906       37.3587974877
  C         4.1152956495       -0.7443739758       37.4270928392
  H         3.3324314582        0.0438871005       19.1303527748
  H         1.7730048852        0.1596207695       18.3843743065
  C         3.0584023325       -0.6231325092       16.9276091193
  H        15.4189881546        0.9462321176       22.3549103001
  H        14.6295716946        1.0639865624       23.7937669089
  C        16.5337150547        2.2191462854       23.6231076100
  H        11.0620310164        9.3671805986       13.3636156325
  C        11.3711746421        7.9374828171       12.0099489362
  H         3.2768696101       -0.4982772732       38.1187662302
  H         3.9830682829       -1.8224012071       37.2472780961
  C         5.5342476324       -0.7284944328       38.1143806219
  H         4.1560195870       -0.5094583112       16.8220204960
  H         2.5863851875       -0.2350222051       16.0225548747
  C         2.6533082662       -2.1126820811       17.1419012556
  H        16.4784788890        2.9865744055       24.3153656012
  H        16.9347468126        1.4919230770       24.2739239668
  C        17.6134314588        2.3683409845       22.5220845812
  S        11.7661244723        6.3190231898       11.6616671586
  C        11.4133007069        8.9334010771       10.9071868469
  H         5.5997631699        0.1547841731       38.7796924471
  H         5.6638962491       -1.6963561248       38.5942388552
  H         6.2717058006       -0.6939741967       37.2552230609
  H         1.8849893541       -2.1684746223       17.9224725955
  H         3.5831622063       -2.6266658511       17.3764278730
  H         2.3416938068       -2.5246110443       16.1992139364
  H        18.4896173046        2.5619751444       23.0615632377
  H        17.3420767064        3.1438301067       21.8358907224
  H        17.6596516286        1.3722274850       22.0121145638
  C        12.3815163416        7.0203067399       10.1348585809
  N        12.0396807215        8.3076368319        9.9063553610
  O        11.0595355761       10.1249213909       11.0159972979
  S        13.2655221896        6.2632781256        8.8399194794
  C        12.2675464182        8.9880007515        8.6799132333
  H        12.1668957766       10.0210768632        8.9176414216
  H        13.2801028690        8.8561455112        8.3354995933
  C        11.2467058832        8.6946455921        7.6227341077
  H        10.3045898648        9.0854955194        7.8870126684
  H        11.3787764196        9.0827403689        6.6109179074
  H        11.0610678576        7.6682225837        7.5578014399
  H        20.7844726190       10.8101756115        3.3840643057
  C        21.3832959143        9.9766210271        3.3463003973
  H        20.8639793568        9.0310548115        3.6653980145
  C        22.3338276426       10.1211052775        4.5557190156
  C        22.0843898544        9.8443810021        1.9353034466
  C        21.7207715863       10.3068425836        6.0251036985
  H        22.9253902635        9.3214903473        4.7197629007
  H        23.0600054705       10.8792341031        4.2555434478
  H        21.5588148309        9.2422746425        1.1964565574
  H        23.0492016570        9.3827352132        2.1478081448
  H        22.3849909599       10.8788531280        1.4864384180
  C        21.1481458169        9.0025279513        6.5503776484
  H        22.5736301357       10.5135724760        6.7240047356
  H        21.0264624014       11.0931917697        5.8257971381
  C        20.3185075862        9.1414496866        7.8718058990
  H        21.9383763404        8.2401167378        6.6909480597
  H        20.4542474918        8.5906921171        5.8579066434
  C        19.0843787690       10.0932860646        7.7638766461
  H        21.0217111179        9.2893074893        8.7739250257
  H        19.8335344364        8.1821635233        8.0596299233
  C        17.7700633679        9.3468318395        7.2929941307
  H        18.7700637065       10.4615088428        8.7861870116
  H        19.3471816974       11.0166031280        7.3008410956
  C        16.6089351382       10.3577798328        7.0911205178
  H        17.5415324423        8.6966458787        8.1022568000
  H        18.0082816215        8.6026548900        6.4751557038
  C        17.0887430986       11.6090752676        6.4284341445
  C        16.2420375323       11.0734951885        8.2843538226
  C        15.4785636546        9.7234388145        6.2229433652
  C        16.8602981364       12.7816699140        7.1550458792
  C        17.7356355915       12.0073988504        5.1743101535
  C        16.4592344240       12.4114107767        8.4121989236
  C        15.7739715732       10.4670282760        9.4284147362
  H        15.9249303977        9.1155081327        5.4128321297
  H        14.8903957176        8.9813995026        6.7997019336
  C        14.4293976159       10.6647830422        5.5948967535
  S        17.1338465155       14.2488527782        6.2803486537
  C        17.6972973022       13.3321328799        4.9486974528
  H        18.2286159964       11.2523921657        4.6356092215
  C        16.1091030219       13.0580771642        9.5947292567
  H        15.7308559421        9.4282490772        9.4400955639
  C        15.4561105949       11.0812224775       10.5896551033
  H        14.9794321685       11.3815964811        4.9498677322
  H        14.0024580824       11.1552704005        6.4507339723
  C        13.3488805762        9.9859520042        4.7026787115
  C        18.0742489433       13.9539120440        3.6189852729
  C        15.6175453282       12.4207108620       10.7355559911
  H        16.1819899817       14.1311386709        9.5795569556
  C        15.0067808427       10.7578121569       11.8496574976
  H        12.4955762266       10.6399213670        4.5337755724
  H        13.0738830330        9.0783846219        5.3027109377
  C        13.9547762852        9.4507296361        3.3529680041
  C        17.9150797489       15.3662886436        3.3138630514
  C        18.5994010851       13.1467066763        2.4857380550
  C        15.1723584603       13.1681433100       11.9202394367
  C        14.8272056823       11.8782895293       12.5938014980
  S        14.5029460217        9.3690973526       12.5647955443
  H        14.4138906134        8.4236218312        3.6178895520
  H        14.6447453976       10.2155324147        3.0645308181
  C        12.7194827482        9.3491292663        2.3941132651
  N        17.6477313856       16.3195601166        4.2484860783
  C        18.2476548007       15.8972978755        2.0602997712
  C        18.7924001865       13.6456962958        1.2072707668
  H        19.0772516587       12.2441831906        2.6895361132
  C        13.9089788980       14.0175637843       11.8237236914
  C        16.3233327053       14.0416339098       12.4990617305
  C        14.4256242223       11.5829380016       13.9179186936
  C        14.2458612509       10.2400492651       14.0856406879
  H        12.0039457272        8.7292403779        2.8993506912
  H        12.2393864405       10.3200873536        2.2962376881
  C        13.1031477979        8.7144460181        1.0596355044
  S        17.7415809042       17.7978148168        3.6005144123
  N        18.1261525355       17.2739798110        2.1121740987
  C        18.5703720270       15.1148506633        0.9805014027
  H        19.1565609350       13.0445601439        0.3864902344
  H        14.1324932010       14.8388363172       11.1797122318
  H        13.6878209747       14.3400313068       12.8758226890
  C        12.7394249027       13.2595228257       11.0907132330
  H        16.8576575814       14.5503544971       11.7417758577
  H        15.9287943164       14.8118841071       13.0366437287
  C        17.3458412391       13.2713329790       13.3216563796
  H        14.1954824267       12.4273348254       14.6137356526
  C        13.9085972043        9.5176105366       15.3561311147
  H        12.9644936916        7.6378023259        1.1677924278
  H        14.1436333293        8.8329161462        0.7526102671
  C        12.1008378823        9.1157370598       -0.0271321330
  C        18.7840199618       15.7583986230       -0.2701039772
  H        13.1088125204       12.9500077146       10.1208478998
  H        12.5121406881       12.3162559263       11.6439513604
  C        11.4028282416       14.1407968704       10.9939122654
  H        17.7328754280       12.4191453628       12.7395985392
  H        16.8728653267       12.8891754028       14.2886249636
  C        18.5289478094       14.1952114404       13.7436186496
  C        13.9748443309        8.1607669955       15.6528741075
  C        13.5989344973       10.3877934048       16.5045976198
  H        11.7369485882        8.1309235395       -0.3453442332
  H        11.3084317617        9.6598188613        0.4596688734
  C        12.6820350741       10.2196755924       -1.1075952847
  H        18.4831849220       16.7754468553       -0.2311539532
  C        19.1568077229       15.3259289804       -1.5040266763
  H        11.6621683924       15.0826644400       10.5545372712
  H        11.0631412187       14.3375536115       11.9962293955
  C        10.2705995051       13.4601606144       10.2368851597
  H        19.0211673723       14.6453343080       12.8904801730
  H        18.2429438450       15.0365880547       14.3260233938
  C        19.6219794534       13.5040903088       14.5105498208
  N        14.3540116293        7.1800839681       14.7310181504
  C        13.6853701162        7.6822350058       16.9000668718
  C        13.2827657361        9.9079184356       17.7319995253
  H        13.5700385551       11.5135890249       16.4247828714
  H        13.1803642076       10.9733268633       -0.4818782629
  H        11.8905116944       10.6625528706       -1.7740793959
  H        13.4047573747        9.7083467043       -1.7716705710
  S        19.5061834773       13.7145724252       -1.9407394807
  C        19.0642973200       16.2519923318       -2.6804115917
  H        10.6844634893       13.3310618360        9.2240966645
  H        10.0941776171       12.4664994499       10.6169953220
  C         8.9590100306       14.1998622549        9.9490584043
  H        19.9065843086       12.6525516562       13.9734791319
  H        19.2669993730       12.9758324096       15.4270891557
  C        20.8599436004       14.3602785201       14.8247778362
  S        14.2187964672        5.7566983382       15.5124305323
  N        13.7524494148        6.2739450832       16.9708935104
  C        13.2933607787        8.4920963565       18.0004515389
  H        13.1008369943       10.6842940378       18.5025828398
  C        19.7075423602       14.3343422613       -3.6257486035
  N        19.4788675667       15.5948558026       -3.7825171329
  O        18.7148291270       17.4084396776       -2.6244285888
  H         8.3133625905       14.5052687815       10.8123525385
  H         9.1864549184       15.2797861584        9.6457386563
  C         8.0369297825       13.3380616214        9.0103374567
  H        21.7078693925       13.8119695439       15.1615589404
  H        21.0928494588       14.7623461064       13.8417159653
  C        20.6134724361       15.5377303784       15.7780938618
  C        12.9262454180        7.8395514634       19.2132021310
  S        20.2664571707       13.2296796772       -4.9864227013
  C        19.4758388904       16.2379551683       -5.0944211825
  H         8.5785361960       13.2694909116        8.0571831423
  H         7.9557012918       12.3503396590        9.4812730748
  C         6.6723393365       14.0211532474        8.9314419624
  H        20.5298082288       15.0488976730       16.7602904697
  H        19.7462313229       16.0713083535       15.3714099027
  C        21.7325136090       16.5793030056       15.9001227301
  H        13.4511089789        6.9401930478       19.4540004648
  C        12.3197622220        8.2471088707       20.4058801051
  H        20.2356276658       15.7336077918       -5.7134414364
  H        19.6595658675       17.3277386938       -5.0406590830
  C        18.0543697701       16.1434019803       -5.7592654579
  H         6.0202026659       13.6352064729        8.2232950282
  H         6.6450978739       15.0424158402        8.6468426763
  C         5.9071866003       13.9687815034       10.2118612238
  H        21.4547776644       17.3478147296       16.6370603185
  H        22.6372118492       16.0901788186       16.1616132394
  C        21.9622330791       17.2238995223       14.5466744350
  S        11.6430607406        9.7310972551       20.6360099129
  C        12.1453249501        7.3000777714       21.4887148773
  H        17.9217135974       17.0356131089       -6.3957606603
  H        17.3523989362       16.1826402709       -4.9199916487
  H        17.9430573433       15.2971993470       -6.4823880539
  H         4.8183870362       13.9537115367       10.0715469790
  H         6.2955295806       13.1576175387       10.7549273391
  H         6.1465716061       14.8159834158       10.7523058976
  H        22.5919374572       16.5870205172       13.8768704585
  H        20.9629704689       17.4004054972       13.9921122965
  H        22.3738762219       18.2399261098       14.7076798536
  C        10.8780947913        9.1543971638       22.1083421313
  N        11.3687018614        7.9088614332       22.4378312639
  O        12.6152744391        6.1546556371       21.5190702646
  S        10.1403305063       10.1964711435       23.3469518298
  C        11.1819307693        7.2979572504       23.6956975554
  H        10.8715137815        6.2456980761       23.5484620732
  H        10.3392507041        7.6619519854       24.1828899806
  C        12.4290849838        7.3191543407       24.5964852805
  H        13.3706312020        6.9370144418       24.1326569098
  H        12.2860919842        6.6733979054       25.4828314357
  H        12.5017494840        8.2903733396       25.0165593558
