352
 i =    41800, time =    41800.000, E =        24.8187268666
  H        11.5021355974        7.7252425061       32.6114888765
  C        11.5663068931        6.6844398121       32.3970257180
  H        12.5902053681        6.4676622664       32.1120113843
  C        10.7035267669        6.0484993366       31.3472148787
  C        11.2479230747        5.9648485562       33.7410517615
  C        10.9142882713        6.5158907822       29.9326923486
  H        10.8328387029        5.0383787979       31.3388775871
  H         9.6550414007        6.1941717749       31.4626287571
  H        11.2947372922        4.8597078501       33.7500989701
  H        11.9849637762        6.2484397015       34.5232059739
  H        10.2664348245        6.1991914764       34.2344921453
  C        10.3956308138        5.5547526343       28.8777830202
  H        12.0325509025        6.5481775923       29.8317257455
  H        10.4385954132        7.5354911267       29.7480359926
  C        10.8672630164        5.8767923337       27.3670320973
  H        10.6294508335        4.5676161951       29.1147064893
  H         9.2475529840        5.6099131008       28.9598383050
  C         9.9313226640        5.3763499995       26.1987399947
  H        11.8178292980        5.3300493064       27.3644197720
  H        11.0327417754        6.9220159618       27.1867813581
  C         8.6763393554        6.2702309783       25.9053499178
  H        10.5654485237        5.3053076215       25.3167535057
  H         9.7696931938        4.3313802135       26.3951545194
  C         7.5599580214        5.5066130306       25.1187885064
  H         8.3526140629        6.5619106043       26.8751968688
  H         8.8221868790        7.2529429513       25.3768628659
  C         7.2065028172        4.1213665717       25.7628447655
  C         7.9312862572        4.7377372253       23.8523934042
  C         6.3278603585        6.3897339305       24.8120852789
  C         7.3432894169        3.0057711427       24.9462306390
  C         6.7076459307        3.7270932322       26.9907247155
  C         7.8439402403        3.3700603403       23.7318593351
  C         8.4098432643        5.4036968751       22.6901608645
  H         6.5009548354        7.0925836114       24.0319999982
  H         6.3659816830        7.0271638741       25.6723114052
  C         5.1261284439        5.5404673359       24.6157068112
  S         6.7119419574        1.5333573816       25.6047885467
  C         6.4783851744        2.3699894358       27.0383852186
  H         6.6222952759        4.4971473932       27.7626979566
  C         8.2647415941        2.7387508672       22.5868026824
  H         8.4643648772        6.4500993215       22.7381701828
  C         8.8292834348        4.8116889533       21.5784649164
  H         5.1625873265        5.0666767083       23.6094438140
  H         4.9071308910        4.8626394163       25.4687909124
  C         3.8743886040        6.3262053955       24.5911724553
  C         5.9347353667        1.6416616652       28.2806378612
  C         8.7403006103        3.4257343969       21.4362001290
  H         8.2111133123        1.6743996395       22.5772563720
  C         9.2685945295        5.2101957269       20.3326796106
  H         3.2738543658        5.8276344701       23.8115088719
  H         4.1760459749        7.2381418839       24.2003232187
  C         3.2318430410        6.6104983269       26.0605299867
  C         5.8316335029        0.2770070890       28.5006475754
  C         5.6013151611        2.5343883444       29.4432934250
  C         9.0878008553        2.6869750509       20.1886574588
  C         9.3145570206        4.0818251803       19.4826818605
  S         9.3899040619        6.7407890262       19.5846060221
  H         2.5049120776        7.4689359366       26.0664417956
  H         4.0028088399        6.8383743248       26.8628029849
  C         2.3067696389        5.4525564657       26.4861385308
  N         6.0083764894       -0.7280901419       27.4998595255
  C         5.5588263570       -0.2219562542       29.7848508038
  C         5.3317186070        1.9810940633       30.6966889261
  H         5.4288816328        3.5825893021       29.2510248986
  C         7.7631141326        1.9850664942       19.6554786792
  C        10.4265055920        1.8064922030       20.2005452592
  C         9.5742512982        4.5188214698       18.1937370141
  C         9.7447378607        5.8105255503       18.1094289853
  H         1.7307762520        5.1759584712       25.6914760769
  H         2.9723640384        4.6052032323       26.8480271719
  C         1.4567451405        5.8950604124       27.6480273150
  S         5.9776676181       -2.1612929620       28.2677161083
  N         5.5617276591       -1.6087466708       29.7604541760
  C         5.2799554751        0.5236915263       30.9817192610
  H         4.9105867919        2.7174881747       31.3516075677
  H         7.5326716096        1.0786671607       20.2264968419
  H         7.9735434542        1.7915838315       18.6358985849
  C         6.3967228304        2.7478849775       19.7747393644
  H        10.4439166763        1.3841280030       19.1905470347
  H        10.3814408059        1.1130820258       20.9874437251
  C        11.6333324007        2.6539872149       20.3060416293
  H         9.7212174085        3.7017608048       17.4592488110
  C        10.0999475018        6.4674387897       16.7819973380
  H         0.5452220457        5.2998248345       27.7827198786
  H         0.9554625568        6.8689095661       27.4628039096
  C         2.2473593196        5.8602782756       28.9941416438
  C         4.9532933310       -0.1105546785       32.2100004266
  H         6.4902171615        3.6443888818       19.2630194337
  H         6.2680607644        3.0350821259       20.7698509142
  C         5.1892879497        1.9033162266       19.2468783902
  H        11.5064218822        3.3336957347       21.0953850994
  H        11.7615678781        3.1962210881       19.4227575726
  C        12.9547556479        1.7755746639       20.5052896324
  C        10.2659846017        7.8228384168       16.5786143887
  C        10.3175553920        5.6435223336       15.5735093878
  H         2.9351647390        5.0264049288       29.1735749340
  H         2.8544378051        6.7928991074       29.0329087069
  C         1.3621730515        5.8198965097       30.1897792969
  H         4.8422758224       -1.1718848676       32.1023827385
  C         4.7272542792        0.2930604087       33.4688426316
  H         4.3705057954        1.9985107526       19.9467432030
  H         5.6750522655        0.9092797208       19.1170685270
  C         4.6389280123        2.5126401085       17.9498132033
  H        12.8952859949        0.9567432971       21.2546784645
  H        13.1026260666        1.2983497279       19.5673451400
  C        14.1219649786        2.7159996578       20.7172138160
  N         9.9932912267        8.8196785418       17.5222452658
  C        10.6337616887        8.4057246848       15.3748562274
  C        10.5420063115        6.2145279722       14.3099594140
  H        10.0657822558        4.5192011919       15.5512767445
  H         0.8143723107        4.9135674551       30.2875713152
  H         1.9315320956        6.0639722084       31.0918804566
  H         0.6585081283        6.6568299111       30.1455482763
  S         4.4437494927        1.8945814499       34.0206148522
  C         4.6064613664       -0.7028136977       34.5869620015
  H         4.6145923113        3.5615369363       17.9411392281
  H         5.4983544394        2.2939787255       17.2822751265
  C         3.2317820696        1.9206318557       17.5358480835
  H        13.9145236356        3.6573496548       20.0650831020
  H        15.0241312337        2.3036222899       20.2030711908
  C        14.4323035364        3.1664911962       22.1896228911
  S        10.2835897912       10.2914686298       16.8669931007
  N        10.8252171343        9.7921403976       15.4243441493
  C        10.6963672414        7.6720157030       14.1459421079
  H        10.7284129252        5.5067858726       13.4661595361
  C         4.2338112181        1.2338014037       35.6218493158
  N         4.3190949665       -0.1241980579       35.7484319681
  O         4.8354546157       -1.8522742855       34.3904790364
  H         2.7696743326        2.4912138609       16.7358489945
  H         2.5967806325        1.9842499042       18.3983144160
  C         3.1899852335        0.4768795379       17.0004393739
  H        14.8712394967        4.1480321276       22.1734102690
  H        13.4869601251        3.2822417347       22.6732867711
  C        15.2019426849        2.1959596688       23.0040024439
  C        11.0152820554        8.3907129826       13.0054104771
  S         3.7598878577        2.1185910600       37.0757489552
  C         4.3228069605       -0.8913553658       36.9995040335
  H         2.2994212273        0.3619472160       16.3906517219
  H         4.0668898620        0.2488239543       16.3961192691
  C         3.0887987906       -0.6783449877       18.0333330493
  H        15.2311070178        1.3988106538       22.3520958308
  H        14.4979686201        1.9274035858       23.7836311183
  C        16.5864993992        2.6084590735       23.4060528689
  H        10.6474774423        9.3643624340       13.0488163973
  C        11.5333290643        8.0789547724       11.7694844212
  H         3.5984633521       -0.6817689878       37.7486701912
  H         4.2710246648       -1.9261547518       36.8067620676
  C         5.7285443051       -0.7361010602       37.5662155159
  H         3.5461987334       -0.3501583197       18.9640897097
  H         3.7749443976       -1.4565258769       17.6467195678
  C         1.7002238267       -1.1920570179       18.3423298221
  H        16.5993175772        3.6383819999       23.7975679774
  H        16.9938160287        1.8947328755       24.1676192378
  C        17.5372032703        2.6383135000       22.1996122156
  S        12.1238763182        6.4926925017       11.3426217795
  C        11.6300550440        9.0757630761       10.7048030805
  H         5.9319037587       -1.5796471526       38.1542921312
  H         6.4754416790       -0.5696238596       36.7775703243
  H         5.7474598456        0.0901286538       38.2473536811
  H         1.6211650551       -2.1348614076       18.8564185084
  H         1.1309906411       -1.2997156692       17.4503671433
  H         1.0942604596       -0.3981557389       18.9236492726
  H        18.5173228696        2.7601336516       22.6475385004
  H        17.4404825160        3.4980513411       21.5659956709
  H        17.3805584513        1.7390433911       21.6045373778
  C        12.4126010297        7.2380279951        9.7548556639
  N        12.2918435421        8.5597887371        9.6632540276
  O        11.1163587104       10.1798122491       10.7689911269
  S        13.3779487401        6.4533434002        8.5638652534
  C        12.3375308945        9.3514268190        8.4021831766
  H        12.5883159306       10.3647839420        8.6094589364
  H        13.1825314603        8.9654720435        7.8184626121
  C        10.9996028955        9.2880788666        7.6921026807
  H        11.1519748347        8.7137366289        6.8455957815
  H        10.1200042392        8.9302127192        8.2556693398
  H        10.6798334809       10.2647026789        7.3125746950
  H        21.4633544559       11.5176467478        3.2281636735
  C        22.0286287580       10.6005108435        3.3018040396
  H        21.2469724059        9.8570077520        3.4488976006
  C        22.9049345250       10.6142381860        4.5928925307
  C        22.8895189207       10.4135784786        2.0448845635
  C        22.1285774071       10.6335727812        5.8732799749
  H        23.4131712117        9.6941433492        4.4448922121
  H        23.7510050882       11.4064158314        4.6065784661
  H        23.6519289736       11.1451850701        2.0593795911
  H        22.3186079599       10.6394647857        1.0835916439
  H        23.4818008353        9.4333345379        2.1394958171
  C        21.3319724337        9.3311649593        6.3095793439
  H        22.8147199647       10.8818662419        6.7069432535
  H        21.4424900988       11.4573777172        5.7839744108
  C        20.4495251169        9.3993385814        7.5999743040
  H        22.0973050411        8.5366492846        6.4077480507
  H        20.7318565229        8.8747217780        5.5144500316
  C        19.3655759907       10.4249288803        7.3569779364
  H        21.1907205080        9.8638991069        8.3455312291
  H        20.1260373902        8.3981486444        7.9161037141
  C        18.1596226202        9.6929229009        6.9873656709
  H        19.3456061084       11.1047668556        8.1880012047
  H        19.5905581135       11.0439760635        6.5247394241
  C        16.9333401153       10.6594761534        6.8205825062
  H        17.9316007194        8.9707790933        7.7552816837
  H        18.2023472147        9.1447082678        6.0092759233
  C        17.1504699913       11.9205663645        6.0219112970
  C        16.4143215797       11.4369443154        8.0115188415
  C        15.7674553154        9.8029943564        6.1384996895
  C        16.8497035228       13.0816763482        6.7371170950
  C        17.6626506112       12.2019241810        4.7420177813
  C        16.3865893944       12.7545975766        7.9974103763
  C        15.9045203234       10.8555576965        9.1158255567
  H        16.1840830034        9.3904315798        5.2328397676
  H        15.5836269609        9.0240219804        6.8408820602
  C        14.5063376923       10.6631774567        5.8492200124
  S        17.2034668198       14.5140231868        5.8660095809
  C        17.7223328020       13.5628788184        4.4715459444
  H        18.0132646720       11.4176230921        4.1109305574
  C        15.9753954839       13.4595571255        9.1151467658
  H        15.8677646315        9.7540907229        9.1834260780
  C        15.4745168594       11.5338462105       10.2289735641
  H        14.7286164653       11.7029423831        5.5689905336
  H        14.0008462743       10.7832235035        6.8004795797
  C        13.5175320990        9.9478255851        4.9287081967
  C        18.1938855042       14.2326866421        3.2405257242
  C        15.5869108597       12.9005652175       10.3632392059
  H        16.0934396739       14.5177846573        8.9413299103
  C        15.0605251295       11.2390828502       11.4620020340
  H        12.5860147856       10.5812446896        4.9632852890
  H        13.2513991087        8.9609327873        5.3443842935
  C        14.0471065849       10.0282484600        3.4770901902
  C        18.1760231911       15.6099589945        2.9867204892
  C        18.6599837755       13.3412936629        2.1912066797
  C        15.2976809679       13.6416158648       11.6453797855
  C        14.9530702332       12.3080918701       12.3031141593
  S        14.7172799345        9.7247976059       12.1882509562
  H        14.6574874117        9.1566910578        3.2491349480
  H        14.7907627431       10.8352240937        3.5672053185
  C        12.9457059696       10.2304685609        2.4310641577
  N        17.8653180649       16.6481988862        3.8229294507
  C        18.4559984836       16.0973596982        1.6887552560
  C        18.8414998942       13.8197824150        0.8868146085
  H        18.9605407807       12.3501228557        2.3930778457
  C        14.0289715857       14.5622978890       11.5501645047
  C        16.5270717249       14.3773483572       12.3114537465
  C        14.5705469856       11.9168281764       13.6023365960
  C        14.4032406798       10.5584933743       13.7216418610
  H        12.1435547317        9.5446188763        2.6274252548
  H        12.6099460769       11.2702349536        2.5450331440
  C        13.6463166099        9.9730987920        1.0716558896
  S        17.9323727700       18.0699154068        3.0519535812
  N        18.2437315459       17.4652553096        1.5921546390
  C        18.7020446164       15.2511585542        0.5805120515
  H        19.3047595499       13.1583221304        0.1909501048
  H        14.1215914458       15.1858629567       10.6969703155
  H        13.8521351075       15.1099357036       12.4478388404
  C        12.7765610385       13.7815871295       11.3709219106
  H        16.8352862002       15.2764850284       11.7431507435
  H        16.1218435296       14.8172489151       13.2220445792
  C        17.7733837531       13.5202825531       12.6342386894
  H        14.4843210080       12.6583150486       14.4148433483
  C        14.0550275289        9.8447282773       15.0297572737
  H        14.1956554842        8.9839310121        1.0359839497
  H        14.3957038646       10.7295574853        0.8026567752
  C        12.5807081439        9.9574944220       -0.0392131997
  C        18.7937499559       15.8401079113       -0.7190290964
  H        12.9605150640       13.0291723982       10.5831866097
  H        12.4952601756       13.2145974076       12.2193560489
  C        11.5445057327       14.5535882006       11.0707152738
  H        18.1129025334       13.0303488332       11.7317020443
  H        17.3836862895       12.7861221848       13.3221307731
  C        18.8964729170       14.2692476710       13.3095419414
  C        14.0126554136        8.4415929913       15.1791226022
  C        13.8229749090       10.7210757158       16.1811591610
  H        12.2469392858        9.0065719199       -0.3192845936
  H        11.7367354561       10.5441084152        0.3301228137
  C        12.8296712768       10.8006219352       -1.3081051286
  H        18.5466613162       16.9232003303       -0.8091930429
  C        19.2903739790       15.4666822491       -1.9310427147
  H        11.6892948661       15.3426303775       10.3665899273
  H        11.1946335314       14.9810127831       12.0493801974
  C        10.4243494316       13.5944135912       10.4651256151
  H        19.6773284774       14.6433265421       12.6828453356
  H        18.3434410825       15.1557092802       13.7663134559
  C        19.5898508032       13.4160288139       14.4545113047
  N        14.3140330918        7.5499756423       14.1610411367
  C        13.7112954105        7.8838722249       16.3795031098
  C        13.6346526643       10.1265042953       17.4409035228
  H        13.7564893353       11.7461681069       16.0539276533
  H        13.7441692196       11.2651478632       -1.2468571416
  H        12.0711655956       11.6291786626       -1.2604792940
  H        12.8238197125       10.2296148762       -2.2062705107
  S        19.8458938139       13.8844134726       -2.2930712338
  C        19.2168308123       16.3886118820       -3.0882789932
  H        10.7619144031       13.0109412567        9.6022981752
  H        10.2064475656       12.7670827660       11.1588950739
  C         9.2754342134       14.4364330510       10.0253790649
  H        19.5961599872       12.4039961294       14.0717730093
  H        18.9481732683       13.2649005393       15.3248653731
  C        21.0892109574       13.7767757959       14.7154867935
  S        14.1652543607        6.0457665768       14.7374044358
  N        13.6512462234        6.5150547369       16.2198450913
  C        13.4933987393        8.6264862288       17.5437528859
  H        13.4255437169       10.7683452558       18.2202441842
  C        19.8484612994       14.4103296005       -3.9818154968
  N        19.6313477407       15.7204489570       -4.1911736111
  O        18.7359293302       17.5479975223       -3.0806631449
  H         8.6478486326       14.7088345773       10.8803677859
  H         9.5705500873       15.4584543885        9.6944446750
  C         8.4040293333       13.7608212690        8.9318997779
  H        21.4391335677       13.2517491297       15.5912341062
  H        21.8122071048       13.4359728338       13.9150636028
  C        21.2417540369       15.2731722500       14.9999050757
  C        13.0702585536        7.9093235033       18.6843793841
  S        20.4084444503       13.3133557197       -5.2390336694
  C        19.7869937107       16.2805601494       -5.5526682326
  H         8.7524424584       14.0989830680        7.9485944511
  H         8.4837915711       12.7237702514        9.1206512967
  C         6.9222809593       14.1927996940        9.0072599978
  H        21.5494428403       15.3512252949       16.0487143180
  H        20.3073259567       15.7683733842       14.9264280985
  C        22.2093331533       16.0191398947       13.9600999121
  H        13.2199879104        6.8511487660       18.7013091718
  C        12.5455475575        8.2626342771       19.8786128292
  H        20.2197380463       15.7136926202       -6.4686517321
  H        20.4618456486       17.1741079315       -5.3429201603
  C        18.5377307196       16.9680300037       -6.1049313135
  H         6.5351655126       14.1256563224        8.0012228789
  H         7.0571233352       15.2742876572        9.2321692909
  C         6.1408714341       13.4906371815       10.0869508090
  H        23.2655001668       15.6090277810       14.1666342739
  H        22.0701461178       15.7310009225       12.9367794757
  C        22.1871643002       17.4667875091       14.2943160735
  S        11.9793441823        9.8235912403       20.2228015702
  C        12.3287612238        7.2315924223       20.9761010198
  H        18.5404117023       16.9028416657       -7.2021488727
  H        18.5357390139       18.0387525979       -5.8667860062
  H        17.6261667399       16.4520968246       -5.8058931365
  H         6.5523200932       13.6537920407       11.1164598015
  H         5.0383330025       13.6745143046        9.9310332364
  H         6.2262977132       12.4063569711       10.0476284985
  H        21.9034995263       18.0710643120       13.4608767650
  H        21.4371345904       17.7229611165       15.0289228926
  H        23.1568246512       17.7613174784       14.6553283157
  C        11.6419878410        9.2188908913       21.8518579192
  N        11.8045503183        7.8930671551       22.0410152921
  O        12.6961969231        6.0764188401       20.9305486328
  S        10.8386382110       10.0954065175       23.0894226505
  C        11.6288470146        7.2075327035       23.2528447975
  H        11.2266481785        6.2235741730       22.9451320229
  H        10.9073678938        7.6316443336       23.9463257665
  C        12.9866749281        7.0390857248       23.9507523132
  H        13.4051062431        8.0886833820       24.1856838561
  H        13.7143462914        6.3923639170       23.4680210199
  H        12.9343131353        6.5278462024       24.9272120464
