352
 i =    73300, time =    73300.000, E =        24.7874863804
  H        11.0257857771        7.0577499483       32.9842536775
  C        11.5274886082        6.2873988509       32.4524120291
  H        12.4252525440        6.7752060405       32.0571764605
  C        10.6964880960        5.8188242316       31.3206083438
  C        11.9383086502        5.2978646118       33.4654613684
  C        10.5602525233        6.7022461137       30.0311565886
  H        11.2110601722        4.8681266945       31.0318548017
  H         9.6940175699        5.4787112347       31.6481251833
  H        11.0507058132        4.7808897004       33.8481538625
  H        12.6900438242        4.5993948418       33.1153299136
  H        12.4005395456        5.8777657999       34.2375803007
  C         9.8231480946        5.9496412697       28.9467836083
  H        11.5177104221        7.0270529172       29.7085439817
  H         9.8760357793        7.4618841494       30.3176904907
  C        10.4783503228        5.9953763689       27.5402128958
  H        10.0391972359        4.9100335150       29.2998005843
  H         8.7960464685        6.2263116238       28.8003083846
  C         9.6521226890        5.1592028667       26.4248287766
  H        11.3892902565        5.4227080148       27.6122745714
  H        10.6861965647        7.1047651563       27.3363050365
  C         8.4448407374        6.0484964700       26.0595824682
  H        10.3336921801        5.2196026079       25.5565923346
  H         9.5575126019        4.1354817817       26.6666786961
  C         7.3804163998        5.1728094903       25.3015071619
  H         7.9887408976        6.5763381726       26.9503814034
  H         8.7605685697        6.9512086237       25.5273923888
  C         7.1585306198        3.8579081158       26.0900521426
  C         7.8983996446        4.4572422780       24.1180907884
  C         6.1146956828        5.9203607202       24.9834575462
  C         7.3722709219        2.7623549158       25.3136808878
  C         6.7113794304        3.5113261108       27.3228387595
  C         7.8089847572        3.1095717738       24.0304175213
  C         8.3250479651        5.0875509844       22.9248732946
  H         5.5676503884        5.3207896345       24.2714720334
  H         6.2636893226        6.8979087060       24.4453818229
  C         5.0561834716        6.2154972115       26.1157342123
  S         6.9980807690        1.2683084599       26.1125754413
  C         6.6122538767        2.1815031477       27.5248773398
  H         6.4121357562        4.3475177058       27.9905480952
  C         8.0754690027        2.3977638267       22.8932903478
  H         8.5143248999        6.1751481746       22.9775973431
  C         8.6130336632        4.4725741942       21.7353862254
  H         4.9423402406        5.3652774253       26.7636220048
  H         5.2736554184        7.1087074015       26.6774818979
  C         3.6976388010        6.3164390741       25.4067132977
  C         6.1088529507        1.5190630914       28.7728724724
  C         8.4705814604        3.1226726183       21.7824137846
  H         8.1275744193        1.2828502269       22.9122972743
  C         8.9450680694        4.7879331433       20.4808983376
  H         3.3157303228        5.3316475573       24.9622126703
  H         3.8540559367        7.0757667707       24.5821177910
  C         2.6419755238        6.9713950135       26.3326269738
  C         6.0060143726        0.1375538055       29.0708336549
  C         5.6842712984        2.4507501222       29.9005102313
  C         8.7661069484        2.4022322623       20.4803205020
  C         9.0526273193        3.6927126280       19.6932895849
  S         9.2813033347        6.2683536719       19.6460292429
  H         1.9339294365        7.5433476212       25.6809444186
  H         3.0260462800        7.8152032237       26.9539082421
  C         1.9452117931        5.9128067815       27.2157295808
  N         6.2967219541       -0.8967063765       28.1993634119
  C         5.7194028086       -0.2869190327       30.3738342454
  C         5.3380021340        1.9877477157       31.1570018320
  H         5.7662213547        3.5232544482       29.8130664826
  C         7.5289137093        1.6655768413       19.9571526053
  C        10.0212052383        1.4877848718       20.5394408371
  C         9.3004328865        4.0520502734       18.3758631300
  C         9.4318397197        5.3865894906       18.1722947876
  H         1.1843203499        5.4603900227       26.5215527438
  H         2.7118550198        5.1258419752       27.3497985815
  C         1.2101471331        6.2437899333       28.4939077452
  S         6.2630779785       -2.2577493933       29.0067130599
  N         5.8695976571       -1.6749704804       30.4716915738
  C         5.3530751222        0.5375694051       31.4359736828
  H         5.1302627168        2.6454741541       31.9954719450
  H         7.2440098870        1.0352913741       20.7156965228
  H         7.8742472136        0.9925322759       19.1269719345
  C         6.3505203095        2.5857914557       19.5450337970
  H        10.1258787499        1.0355040083       19.5594033411
  H         9.9258249498        0.6644640082       21.2901946768
  C        11.2746760926        2.2928275355       20.8941356908
  H         9.2798941724        3.4020102501       17.5695858718
  C         9.7811946960        6.1089862814       16.9106828114
  H         0.2865241109        5.7197604552       28.3754966383
  H         1.2254612529        7.3171996531       28.7994948540
  C         1.9633975488        5.5590512173       29.5656656243
  C         4.9964916043       -0.0364713287       32.6876156474
  H         6.5499925020        2.9913696088       18.5558327786
  H         6.1053203919        3.4120977055       20.2062879044
  C         5.1068627068        1.8685264411       19.4121395159
  H        11.0710377917        2.9318595624       21.7381799414
  H        11.5746763738        3.0036775524       20.1011405880
  C        12.4968839838        1.4039734589       21.0522665598
  C         9.8753962879        7.5153136923       16.6954240142
  C        10.1659265539        5.3219524748       15.7190648423
  H         2.1844582865        4.5034215564       29.4856376338
  H         2.8889776056        6.0240767880       29.5369507182
  C         1.2897687372        5.5168458057       30.9197142511
  H         4.9202309362       -1.1608376548       32.6631165639
  C         4.7352423284        0.4288259338       33.9221170215
  H         4.2909261961        2.5128989135       19.7200625263
  H         5.0911956500        0.9873535675       20.0415863113
  C         4.6229973261        1.5866224272       17.9974303225
  H        12.2840880524        0.5535030785       21.7149910435
  H        12.8375923798        0.9561756558       20.0782996357
  C        13.5022168300        2.4679998598       21.4762912686
  N         9.7951527405        8.4569924648       17.7143835991
  C        10.2893175917        8.0364401605       15.4681314072
  C        10.4227946935        5.8544362680       14.4985524509
  H        10.1628688314        4.2939915127       15.8310730201
  H         0.5447282082        6.2675352907       31.1168936769
  H         0.7923269750        4.5052569246       31.0116833697
  H         1.9941056770        5.5254887362       31.7675895705
  S         4.6765826983        2.0956743304       34.4048425681
  C         4.6293082399       -0.5825488044       34.9862467115
  H         4.4178609640        2.5395586148       17.5713507533
  H         5.3237726669        1.1560685513       17.3629638423
  C         3.2776771599        0.8609090765       17.8096996062
  H        13.1915478354        3.0994666202       22.3124053980
  H        13.6875715559        3.1335403428       20.6499029575
  C        14.7494560568        1.6903337134       21.8628364267
  S        10.1605724371        9.9144855083       17.0525714231
  N        10.3703653290        9.4660901006       15.4541986050
  C        10.6008678128        7.3425486996       14.3193087497
  H        10.6399123582        5.2233304676       13.7005487756
  C         4.2579496821        1.4227616374       35.9485043517
  N         4.3326122202        0.0864264734       36.1049049323
  O         4.7169739599       -1.7647654352       34.8528775154
  H         3.1079781435        0.8866980308       16.7129672525
  H         2.4858269221        1.3873668759       18.2933533422
  C         3.2176474977       -0.6053554370       18.2442077254
  H        14.4281985846        0.7825520356       22.2927156300
  H        15.4400584350        1.3472758370       21.0498840937
  C        15.4673357961        2.4849059279       22.9856149286
  C        10.9545540537        8.0014202258       13.1274731629
  S         3.8482387726        2.3854917081       37.3822001642
  C         4.3560821247       -0.6176753372       37.3889909961
  H         4.2048306294       -1.0769338991       17.9231835066
  H         3.1236980389       -0.7390489404       19.3089022515
  C         2.1392469988       -1.4172652975       17.6560725237
  H        14.9516106322        2.4764860454       23.9281210379
  H        15.4179974587        3.5542532276       22.7036618027
  C        17.0258851129        2.2313858584       23.2049125273
  H        10.8510777172        9.0296303322       13.1025127439
  C        11.5033821746        7.6251317921       11.9563827236
  H         3.8199672714       -0.1337314882       38.1633388305
  H         3.7799245772       -1.5136874612       37.3244141667
  C         5.7146075008       -1.0345994159       37.8048901865
  H         1.3054086591       -0.7819661797       17.5974098571
  H         1.8397251333       -2.2643225667       18.3314415579
  C         2.5016972717       -1.9150900644       16.2926358691
  H        17.2819856163        2.3071110291       24.2307249903
  H        17.1430492592        1.2163160921       22.9738500464
  C        17.7556514506        3.0774768204       22.1265439296
  S        12.1433780184        6.0491300312       11.5650597401
  C        11.5615391871        8.6095818804       10.9145996500
  H         6.2378104197       -0.3634760552       38.4998764237
  H         5.4840757258       -1.9389002660       38.4159678706
  H         6.2401217017       -1.5203932052       36.9797271334
  H         3.3229779000       -2.7005584053       16.3783661230
  H         2.7764752891       -1.0732629226       15.6658327639
  H         1.5252879084       -2.1785586666       15.8590077946
  H        17.3630907580        4.0907111849       22.1959757369
  H        17.6452192148        2.7110729576       21.1650789715
  H        18.7911957752        3.2338992828       22.4223226570
  C        12.3895606447        6.6961642982        9.9744480314
  N        12.2169625129        8.0438801584        9.9225472196
  O        11.1320804568        9.7276084778       10.9992617321
  S        13.0359805094        5.9542051530        8.4748281881
  C        12.3691469182        8.7650015087        8.6429642955
  H        12.7286833302        9.7051342447        8.9915536173
  H        13.0602675389        8.3374457092        7.9970058827
  C        10.9842716910        9.0599062881        7.9863348572
  H        10.5841592226       10.0429983706        8.3500113283
  H        10.9596168518        9.1452339741        6.8773094398
  H        10.2812459517        8.1774098136        8.1775002068
  H        20.8998196052       11.7357349234        3.5423536221
  C        21.1250076970       10.6685829148        3.4032696567
  H        20.3069838387       10.0613507616        3.7881269520
  C        22.4191926040       10.4780648046        4.1956063165
  C        21.4183848740       10.5510419535        1.9154918705
  C        21.9973818869       10.4762187075        5.6600868413
  H        22.9732396771        9.5205928568        4.1411255697
  H        23.1096850966       11.2958235883        3.9420018158
  H        21.3567041365        9.4879303859        1.5815801803
  H        22.4212244916       10.8368164697        1.7522038786
  H        20.7002188662       11.0598791811        1.2508574626
  C        21.4942378076        9.1242759542        6.0174265741
  H        22.7941754254       10.8829082593        6.2806877482
  H        21.2657831663       11.3232113063        5.7661039352
  C        20.3067675286        9.1992403798        6.9952179388
  H        22.3576686753        8.5413318211        6.4715638125
  H        21.2993421971        8.4572616067        5.1635396555
  C        18.9863891099        9.7992619655        6.3435255991
  H        20.6231275530        9.7740212767        7.8654936259
  H        20.1367991729        8.2272658213        7.4477497142
  C        17.8515277788        9.8103834516        7.3196060088
  H        19.2904773431       10.7910178774        5.9377381633
  H        18.7403786055        9.1835975029        5.4847784076
  C        16.5131040673       10.5382116746        6.9529854676
  H        18.2386204431       10.2287703228        8.2603364702
  H        17.6293186636        8.8321830341        7.4489675444
  C        16.9157232131       11.8076476960        6.2366755697
  C        15.9897095960       11.3012864336        8.1292756856
  C        15.5770559491        9.6324225980        6.0632464201
  C        16.6303776926       12.9523363443        7.0034984178
  C        17.4373144375       12.1261694467        4.9792808144
  C        16.0100513332       12.6252542379        8.2250753163
  C        15.5038620519       10.6753739044        9.2684107610
  H        16.1243221151        9.2336455353        5.1579013223
  H        15.3074527787        8.7372486560        6.5687167148
  C        14.3043236182       10.3906836646        5.7111155228
  S        17.0063664351       14.3971086406        6.1948818909
  C        17.4636429130       13.4660463420        4.8136993991
  H        17.6887131744       11.4317210373        4.2088300794
  C        15.6198519249       13.3314095231        9.3490735032
  H        15.5743556420        9.6088217284        9.3052668687
  C        15.1755206996       11.3451857352       10.4044809735
  H        14.6655350133       11.3625709275        5.2881012379
  H        13.7367470845       10.6188864026        6.5749534199
  C        13.2598759634        9.8036419919        4.7781532917
  C        17.8756458288       14.1432557247        3.5552445111
  C        15.2229696227       12.6663631343       10.5062581517
  H        15.7236810496       14.4491749678        9.4571858560
  C        14.6175664414       10.9958787394       11.6261676996
  H        12.3009820718       10.2876204325        5.0108560669
  H        13.0537041519        8.7258642291        5.0020557832
  C        13.6867497749       10.0200168971        3.3290404789
  C        17.9453921008       15.5213624333        3.4142353020
  C        18.2126169095       13.3204959801        2.4108372294
  C        14.8041081394       13.3796820379       11.7397443307
  C        14.5116138146       12.0464980400       12.4713978059
  S        14.2775061258        9.4746337535       12.4699768381
  H        14.5970213866        9.4982560977        3.1796074972
  H        13.7948025952       11.0677097104        3.0835196140
  C        12.5781353026        9.8303793629        2.3496372382
  N        17.4865055998       16.5682261536        4.2868992454
  C        18.1975903754       16.0778349555        2.1651705290
  C        18.5592406516       13.9437600618        1.2280502993
  H        18.3870066082       12.2335984262        2.5054430158
  C        13.4667179489       14.1545602108       11.5087984693
  C        15.8864498094       14.2903050302       12.3723672112
  C        14.0968837982       11.6564677653       13.7901453239
  C        13.9103013474       10.3165848523       13.9646952240
  H        11.8340949363        9.2524725286        2.8695477827
  H        12.1453115316       10.8099944651        2.2196369470
  C        13.0159405216        9.1946793834        1.0510824179
  S        17.5694930097       18.0272795805        3.5243386917
  N        18.2013893932       17.4854825703        2.1831998229
  C        18.4953172114       15.3624533721        1.0007270614
  H        18.8921019598       13.2299388238        0.5389212428
  H        13.6816560791       14.9934593395       10.8362042906
  H        13.2211466396       14.6960927421       12.4503731273
  C        12.2651710926       13.2760028972       10.9818109331
  H        16.2570925561       15.1220942472       11.7015762741
  H        15.3371382626       14.8544254353       13.0505988637
  C        17.0470492945       13.5717175715       13.0824557711
  H        14.0738186460       12.4650735893       14.5293844499
  C        13.5560599003        9.6239802383       15.2324104169
  H        12.2005780566        8.4240908427        0.7947593272
  H        13.9644479619        8.6462142840        1.0484968120
  C        13.2454275720       10.0844837388       -0.1338002235
  C        18.7112602150       16.0462612267       -0.2071310728
  H        12.5477722485       12.9591144095       10.0016800910
  H        12.0791837793       12.3258801785       11.4844077753
  C        11.0114039789       14.1653318800       10.9786990429
  H        17.3148515146       12.8134414452       12.3554730258
  H        16.6664542228       13.0066905168       13.9851963732
  C        18.1759418279       14.4591349046       13.5224649777
  C        13.5404849464        8.2230260838       15.4591637224
  C        13.4841531029       10.4367007741       16.4955701030
  H        13.3651985150       11.0780934411        0.3930962188
  H        14.1436900364        9.9791822870       -0.6171329842
  C        12.0776480447       10.0916367600       -1.1745035917
  H        18.3792013702       17.0865655046       -0.2420851738
  C        19.0800363404       15.6641985315       -1.4408501912
  H        11.0672288942       15.0973441258       10.4700249409
  H        10.9348068024       14.4343603064       11.9916316948
  C         9.7876607957       13.3580848313       10.7807496966
  H        18.4860289457       14.9939482324       12.6704042318
  H        17.8057452447       15.0662542278       14.2794198332
  C        19.2780346855       13.6170827406       14.1578040645
  N        13.8656729930        7.2663330017       14.4809328075
  C        13.3402648640        7.6407547064       16.6685337899
  C        13.2131301708        9.8549705628       17.7112149320
  H        13.5479310158       11.5238745031       16.3972741270
  H        11.9758999610        9.0500789738       -1.5879115050
  H        12.3432955434       10.8154279849       -1.9241346196
  H        11.1321607516       10.3393610661       -0.7988160823
  S        19.6340080019       14.1161393356       -1.9644466144
  C        19.1908723545       16.7500055837       -2.4916246893
  H        10.1100991142       12.4483011229       10.2434568615
  H         9.2810536461       12.9846037624       11.6981139020
  C         8.7800460814       14.0902414958        9.8479593419
  H        19.7551357271       13.0147550863       13.3879204265
  H        18.7853284720       12.9006428670       14.8096631728
  C        20.3272553432       14.5430709684       14.8027629978
  S        13.7989404585        5.8284637720       15.1659022366
  N        13.2183041351        6.2236591058       16.6067849867
  C        13.0813955685        8.3915010509       17.8221786880
  H        13.1310590295       10.4103916628       18.5597990507
  C        19.7492452395       14.8358444083       -3.5864068786
  N        19.6758412411       16.2096566269       -3.6347172484
  O        18.8022588584       17.9115944666       -2.3790360296
  H         8.2120188416       14.8235628468       10.4279198098
  H         9.3082142577       14.5952756550        9.0047245049
  C         8.0252356571       13.0984932473        9.0452512634
  H        19.9712941800       15.2903894879       15.5130435752
  H        21.1338599936       13.9606654126       15.2680607974
  C        21.1278125916       15.3858858688       13.7797518180
  C        12.8078957030        7.5799803742       18.9309520619
  S        20.2925844456       13.9627658201       -5.0073186560
  C        19.8732193699       16.9833791768       -4.9303089204
  H         8.6485282390       12.7577313020        8.2090989401
  H         7.8155778141       12.2864313568        9.6977581726
  C         6.8063462188       13.6825777426        8.4578784388
  H        20.4815898002       15.7621275378       12.9804432505
  H        21.9043836943       14.7691381780       13.3039182104
  C        21.6023954731       16.6891568185       14.4103128824
  H        13.0267212762        6.5320122646       18.9760357159
  C        12.2234704600        7.9251695480       20.1327097492
  H        20.6036358370       16.6006677730       -5.6570648430
  H        20.4188629779       17.9274276578       -4.6464938530
  C        18.4958572390       17.2851062945       -5.5377360048
  H         6.5743704456       13.1097367211        7.5600477203
  H         6.8524875193       14.7398031117        8.2647560765
  C         5.6472414009       13.5218154382        9.4863704628
  H        22.0735350850       16.3797743660       15.3133820785
  H        22.3524111824       17.0906973758       13.8601466373
  C        20.5867661984       17.7526785068       14.5661202364
  S        11.5796816416        9.4715636660       20.6213154543
  C        12.1818054630        6.9765886402       21.2221250487
  H        18.6054757653       17.8223355108       -6.4466111048
  H        17.8110266400       17.8188370811       -4.8697321702
  H        18.1006980229       16.3164451231       -5.7801648974
  H         5.4503776129       12.4795411346        9.7909204974
  H         5.8109648059       14.1289855029       10.3489282849
  H         4.6882117405       13.9542336045        9.1211187184
  H        21.1210745894       18.7217732721       14.7225328996
  H        20.0113981949       17.9471051635       13.7242923418
  H        19.8666643597       17.6004048574       15.3752201326
  C        11.2476336322        8.7820865064       22.1771098522
  N        11.5777440181        7.4896628315       22.2710392811
  O        12.5600409426        5.8007367304       21.1887548268
  S        10.5218137746        9.6367855374       23.5842796252
  C        11.4645228962        6.7541654748       23.5652733544
  H        10.9491518217        5.8189120619       23.3559008120
  H        10.8380550777        7.2039158317       24.3095175435
  C        12.7809651743        6.8107744607       24.2945701205
  H        12.7918784133        6.0787860144       25.1707651787
  H        13.0432725018        7.7603411266       24.6932217128
  H        13.6484066465        6.5704489611       23.6871482017
