352
 i =    90300, time =    90300.000, E =        24.8318296028
  H        10.5415537519        7.3215776440       32.2329832421
  C        11.2931168615        6.5317783941       32.1825219843
  H        12.2473482232        6.9709340510       32.4030395984
  C        11.4757494469        5.9605740551       30.7360385652
  C        11.0981294674        5.4503593377       33.2854387421
  C        10.3501925065        5.0662825353       30.1821821527
  H        11.5468205353        6.8422146424       30.0429410649
  H        12.4151283739        5.4245814883       30.6922728588
  H        11.3210095937        5.7714431552       34.2974142328
  H        10.0515598383        5.0905462418       33.2313370291
  H        11.7474463302        4.6575437274       33.1467339340
  C         9.6250969380        5.5758065219       28.9444427376
  H         9.6495391513        4.8140437814       30.9503385705
  H        10.8080817769        4.1684352862       29.8622188668
  C        10.3657918087        5.5076595418       27.6323018352
  H         8.7379174539        4.9855068452       28.9325757378
  H         9.4580315158        6.6171614315       29.1486324126
  C         9.4576718253        4.8269553965       26.6053795616
  H        11.1851892752        4.8058982517       27.8341318447
  H        10.8387644379        6.4664840069       27.2852087954
  C         8.1962091555        5.7010172086       26.1357245185
  H        10.0982883920        4.5034277137       25.8323274977
  H         9.0297354316        3.9013166092       27.0494162547
  C         7.0371301426        4.9617397968       25.4637878954
  H         7.8269113191        6.3165024498       26.9012882990
  H         8.4529388449        6.3702488637       25.4016439843
  C         6.6591450274        3.6069535435       26.1826771849
  C         7.5482598547        4.1462582153       24.2673125483
  C         5.7519218708        5.7896720379       25.0400428137
  C         7.0288000629        2.4669107494       25.4494597658
  C         6.3159695624        3.2350842744       27.4366541022
  C         7.4905415111        2.8059286904       24.1664920128
  C         8.0618890400        4.8737252362       23.1879035219
  H         5.1235624356        5.0857569114       24.4836784608
  H         5.9366007365        6.5824547258       24.3613384138
  C         4.7289030555        6.1914091435       26.1677237702
  S         6.6310681202        1.0268193069       26.1738182466
  C         6.1583621929        1.9013800115       27.5247561340
  H         6.3648619655        3.9475468164       28.1598178021
  C         7.8557255283        2.3055345441       22.9621283802
  H         8.1934209441        5.9580945977       23.1436721739
  C         8.4111120491        4.2753151727       21.9705920749
  H         4.7903881715        5.4600432757       26.9668743572
  H         4.8510776674        7.2227703175       26.5242254017
  C         3.2355436918        6.2137527500       25.6534454206
  C         5.8532426628        1.1981718979       28.8419813148
  C         8.3269067299        2.9704428567       21.8188172532
  H         7.9926073404        1.2519809023       22.8839795121
  C         8.8337645191        4.6478819876       20.7030211393
  H         2.9882309280        5.2856600349       25.1631255067
  H         3.0432683539        7.0695666269       24.9548752020
  C         2.2718157587        6.2906190322       26.8266339434
  C         5.8054480866       -0.1777627230       29.0988198156
  C         5.3829738929        2.0982239605       29.9402168435
  C         8.6535435721        2.2465881438       20.5086318127
  C         8.9152961897        3.5623905608       19.8016373425
  S         9.1701367828        6.1508308664       19.9501228152
  H         1.3446235782        6.6279208525       26.3595580532
  H         2.5904791989        7.0150598830       27.5390720608
  C         2.0641887794        4.9217329172       27.4596996005
  N         6.1143255249       -1.1848485846       28.1666419748
  C         5.5272852955       -0.6765679811       30.3305944654
  C         5.1069428432        1.5950557230       31.1918288635
  H         5.2466091045        3.1661263782       29.8167201094
  C         7.5749738373        1.4756377410       19.7188325136
  C         9.9731734272        1.4241203335       20.7011057664
  C         9.1840692674        4.0146906261       18.5100200556
  C         9.3526726885        5.3669265752       18.4634996943
  H         1.6746167450        4.1915438881       26.7683802880
  H         3.0129305672        4.3367222411       27.6529178462
  C         1.1876055262        5.0518804477       28.7029581447
  S         6.0796984485       -2.5975317588       28.8722034636
  N         5.5630222687       -2.0774999744       30.2452312052
  C         5.1494297227        0.1390248291       31.3893050430
  H         4.6465366755        2.2340952750       31.8834274076
  H         7.4269280869        0.4631432235       20.0023102880
  H         7.8909341322        1.4208207464       18.6572916391
  C         6.1609650873        2.1701734012       19.7051413674
  H        10.3470532570        0.9314755386       19.7844418289
  H         9.8037727539        0.5846430359       21.4333536182
  C        11.1175454347        2.2222014782       21.1743335984
  H         9.1658726346        3.2476582484       17.6699986246
  C         9.6279093002        6.2065843403       17.2864902424
  H         0.8676242138        4.0563530392       28.9985526183
  H         0.2689407776        5.5847599676       28.4076457245
  C         2.0170986035        5.7429703078       29.8290017127
  C         4.9129496339       -0.4646466356       32.6005238952
  H         6.3002874485        3.1174150609       19.2544350004
  H         5.7018850693        2.4118231593       20.6855190178
  C         5.2103685686        1.3450947246       18.8883051423
  H        10.9469080913        2.8659673243       21.9953565402
  H        11.3565975230        2.8799782993       20.3527391302
  C        12.3018689602        1.3071970424       21.5100301809
  C         9.6825077625        7.5995411744       17.1549208181
  C         9.8411163809        5.5005695790       16.0831023310
  H         2.9006364125        6.2177240306       29.4278141009
  H         1.5244470488        6.6178950334       30.2762097527
  C         2.1950271594        4.7005784072       30.9603774100
  H         4.9444852082       -1.5965155003       32.5023822253
  C         4.7063773141       -0.0345880259       33.8820982778
  H         4.8885869573        0.4830353219       19.4320882391
  H         5.7118186330        0.9621949285       17.9894618919
  C         3.9384643545        2.1877905627       18.7272366597
  H        12.3302705928        1.0162507134       22.5359835761
  H        12.3969943417        0.4722505775       20.8188613816
  C        13.5662525987        2.2173135810       21.5679908093
  N         9.3256280473        8.5517960467       18.1126805756
  C        10.0132402054        8.2628858291       15.9635571067
  C        10.3172283322        6.1744208646       14.8804723849
  H         9.9349887619        4.4057537599       16.0330411928
  H         2.4771355438        5.2672633448       31.8550627121
  H         1.2877204931        4.1492696613       31.1398527346
  H         2.8678143704        3.8297670633       30.8523028309
  S         4.4766381296        1.6040963429       34.3397080425
  C         4.5493537574       -0.9964589308       34.9767245806
  H         3.8076917298        2.7327729854       19.6218404010
  H         4.0310198270        2.8996118393       17.9564675587
  C         2.7440680542        1.3895405494       18.4066385528
  H        13.3528113015        3.1939495462       22.0178055136
  H        13.7833560772        2.4195802531       20.5506576889
  C        14.7695273663        1.6422039484       22.1455382758
  S         9.5759895389       10.0371842559       17.5787835481
  N        10.0493580871        9.7051990467       16.0968845601
  C        10.3045032366        7.6301825569       14.7418704028
  H        10.5522112230        5.5310677619       14.0585842585
  C         4.2832691040        1.0127119569       36.0512932888
  N         4.2564215731       -0.3324880730       36.1526707557
  O         4.5414973933       -2.2324288293       34.8905578564
  H         1.9172820818        1.9844954731       18.0363996286
  H         2.3262934051        0.8965575315       19.3134390387
  C         2.9389516147        0.3166331245       17.2858182134
  H        14.5990770096        0.8159819605       22.8224955846
  H        15.3502196247        1.3010757509       21.3463478625
  C        15.6633690999        2.6503146980       22.8726519922
  C        10.6311191097        8.3361892881       13.5420267696
  S         3.7967462778        1.8972848307       37.4207770312
  C         4.3416895615       -1.0238738168       37.4729213348
  H         2.1570181721        0.5442772609       16.4799083481
  H         3.9213851020        0.6089696955       16.7885539880
  C         2.9051030677       -1.1367120838       17.7761403639
  H        14.9724112254        2.8866629326       23.7898967307
  H        15.7216784206        3.4764713521       22.1502049894
  C        16.9747025514        1.9970386547       23.2335977514
  H        10.8161886143        9.3835922659       13.6933816778
  C        11.0264769073        7.9277364074       12.3001042960
  H         3.4868637447       -0.6788586887       38.1892588924
  H         4.1265650927       -2.0609809994       37.3464621248
  C         5.7376323053       -0.9808950049       38.0994246259
  H         2.5573902747       -1.1140267644       18.8222182092
  H         3.8863826882       -1.5791463208       17.8886576102
  C         2.1181189871       -2.1234120264       16.9704150451
  H        17.4935349837        2.4972447645       24.0309365754
  H        16.8053501524        0.9049697279       23.3386878526
  C        17.9398126848        1.9914394409       22.0456248628
  S        11.4568311879        6.2891582725       11.7650681166
  C        11.0914544953        8.9407927973       11.2681006961
  H         6.5078025419       -1.0401402468       37.3322824491
  H         5.8638446482       -0.1335852685       38.7589872093
  H         5.8310301623       -1.9359260389       38.6575898483
  H         2.2325998740       -1.7927029490       15.9510384009
  H         1.0644474514       -2.1753886102       17.2415795037
  H         2.4709323302       -3.1449177143       16.8423580103
  H        18.8848284448        1.5608646928       22.4734333224
  H        17.9914192671        3.0593035181       21.8155788298
  H        17.6602781106        1.3820817411       21.1456645390
  C        11.8276155812        7.0999694282       10.2597949797
  N        11.5375768367        8.3971817836       10.1585366159
  O        10.6876500602       10.0981674971       11.4702607366
  S        12.3693363819        6.1503678878        8.8896268283
  C        11.4851579232        9.0579384234        8.9020805836
  H        11.6561417269       10.1167380040        8.9478384163
  H        12.3099754630        8.7275368397        8.2697663258
  C        10.1843636166        8.7112325119        8.2861881223
  H         9.4682123317        8.8604387571        9.0418285215
  H         9.9335174028        9.3095684796        7.4189341238
  H        10.0097891773        7.6805189994        8.0787683603
  H        21.5644633327       11.4324892450        3.4016938805
  C        22.1155618931       10.5310273468        3.2773250467
  H        21.3519258926        9.8116535471        3.1251683852
  C        22.8549120626       10.4560439839        4.6380622482
  C        22.9445747365       10.6106743651        1.9608109678
  C        21.8761455400       10.6467875177        5.8184337715
  H        23.1859224242        9.4492269533        4.7486233087
  H        23.7137085669       11.0322102723        4.8214247477
  H        23.4186865247        9.7194781465        1.7039201813
  H        23.7452641412       11.2881277879        1.9952081143
  H        22.2606094836       10.8508294920        1.0908563168
  C        21.2291652618        9.3037452630        6.0772504216
  H        22.5046736690       10.9397495660        6.6497304133
  H        21.0993196563       11.3565958765        5.6315551209
  C        20.1952225526        9.3609423237        7.1515023020
  H        21.9304803959        8.5863600320        6.2926511237
  H        20.6625374155        8.8671423216        5.2643449659
  C        18.7952661211        9.4873346540        6.5413959763
  H        20.3762522073       10.2758420712        7.6852876292
  H        20.2784491582        8.4490897187        7.8102006494
  C        17.7425463108        9.9984530021        7.5464502914
  H        18.9757518347       10.0647649119        5.6673587405
  H        18.5495195477        8.5001006816        6.2460089337
  C        16.5487207542       10.7023157254        6.8550143124
  H        18.2332938765       10.6237740899        8.2802231285
  H        17.3778492191        9.1054808882        8.0778328598
  C        16.8476801792       12.0491252211        6.1774082901
  C        15.9395060057       11.4927888432        8.0049154808
  C        15.3996149555        9.7578117332        6.2006201155
  C        16.5131883930       13.1433174926        6.9402339764
  C        17.4964875335       12.5693311744        4.9878282997
  C        16.0686678405       12.8061201229        8.1627238075
  C        15.5317222190       10.8658824223        9.1994632977
  H        16.0032227214        9.1278602728        5.4840897663
  H        14.9804842743        9.1984619437        7.0591008900
  C        14.3600476750       10.5354632300        5.4586524856
  S        16.9371647120       14.6668783493        6.3117304039
  C        17.5847956664       13.9393401764        4.9195260702
  H        17.9480823906       11.7874709793        4.2463637119
  C        15.6889987042       13.4272509738        9.3201359698
  H        15.5564561618        9.7800298248        9.1262311152
  C        15.0973957097       11.3960417311       10.3654066724
  H        14.8189260877       11.0225335535        4.5598281659
  H        14.0288326330       11.4307221886        6.1058409873
  C        13.1601818873        9.7573174579        4.8814613500
  C        17.9525000432       14.6158408348        3.6311365669
  C        15.1181663843       12.7136520078       10.4702523320
  H        15.8641968860       14.4676582522        9.4573894599
  C        14.6041214229       10.8950077527       11.5489815860
  H        12.2828965774        9.8331322691        5.5810009023
  H        13.3447367020        8.7234123372        4.8039495846
  C        12.8173281029       10.2656604240        3.4529883270
  C        17.9410148017       15.9545083228        3.4055232881
  C        18.4895298308       13.7774932506        2.5675565587
  C        14.7493842025       13.3239176516       11.8019004057
  C        14.5473422239       11.9522302763       12.4459111593
  S        14.3743661312        9.3728340482       12.3530878049
  H        12.9460808284       11.3441807364        3.4224913550
  H        11.7728802033        9.9768839318        3.3640868279
  C        13.6255774717        9.6274319933        2.3345201164
  N        17.4817889935       16.9220002269        4.2860237104
  C        18.2806438064       16.4886368722        2.1972860101
  C        18.6370172095       14.2198115410        1.2415549761
  H        18.7030955941       12.7278082817        2.7710126628
  C        13.3617149087       14.0381302222       11.8385167121
  C        15.8751042304       14.2738849952       12.4016330280
  C        14.3142851690       11.5284269671       13.7708864174
  C        14.1799769109       10.1874640765       13.8634712441
  H        14.6085256332        9.6962524043        2.6087792282
  H        13.5130114130        8.5712266286        2.2937748816
  C        13.5016823608       10.3030175963        0.9856529257
  S        17.3890630411       18.3767834044        3.5224629073
  N        18.1047131619       17.8862605705        2.1242185137
  C        18.6320382084       15.6817446537        1.0511011220
  H        18.8850637752       13.4904181086        0.4743805980
  H        13.4738923626       15.0405678223       11.4492424277
  H        13.2815660516       14.2513188107       12.9192818217
  C        12.1276796787       13.3385888051       11.3325305184
  H        16.1795979097       15.0151857290       11.7123421028
  H        15.5016362444       14.8081340745       13.2976110908
  C        17.2100302730       13.5381691060       12.6433657978
  H        14.2242270838       12.2997671823       14.5132386190
  C        13.8258152907        9.3926040965       15.0848699662
  H        14.4617254521       10.1305635733        0.4996913731
  H        13.4399053461       11.3649817483        1.0894858622
  C        12.4152696709        9.9879304803        0.0006325715
  C        18.7866726469       16.3239663714       -0.2084684508
  H        12.3062824980       13.0211123359       10.2852492914
  H        11.9448628011       12.5619285652       12.0526548954
  C        10.9226207547       14.3294006185       11.2111132043
  H        17.9092104056       13.4652783025       11.7318620876
  H        17.0114788940       12.5522974371       13.0526190764
  C        17.9569317752       14.4078924330       13.6671522941
  C        13.8191740765        7.9889412066       15.1128592473
  C        13.6723672951       10.0765498738       16.4410338690
  H        12.2029133377        8.9372990423        0.1113235293
  H        11.4498997621       10.3423510905        0.3378313641
  C        12.7067769741       10.2402943060       -1.4918584048
  H        18.6621192151       17.4106973369       -0.1984181490
  C        19.0445127521       15.8570962619       -1.4743978890
  H        11.2947461147       15.2650003019       10.8641249740
  H        10.4988583551       14.3977172986       12.2540141959
  C         9.7971405904       13.8396723348       10.1790452906
  H        18.0803254670       15.3701122904       13.1635433801
  H        17.3069847959       14.4687501751       14.5100916462
  C        19.3589924043       13.7993029245       13.9694894226
  N        14.0993043317        7.1453604955       14.0137256682
  C        13.5034824345        7.2550611757       16.2455323816
  C        13.4481050304        9.3465246749       17.5601607236
  H        13.8623082270       11.1453880813       16.5565608958
  H        11.8738059505        9.9948603680       -2.1407739889
  H        13.6415920334        9.7707975654       -1.8018018041
  H        12.7345809714       11.3193866045       -1.6556516455
  S        19.4835864279       14.2643100428       -1.9756694843
  C        19.1129715179       16.8567203234       -2.5595519397
  H         9.3890114420       14.6929585183        9.7019560248
  H        10.3224254673       13.2876726153        9.3992832537
  C         8.7423175854       12.9540480200       10.8243447223
  H        19.7043551701       13.4486152799       12.9738552629
  H        19.1579050086       12.9279117311       14.6187871053
  C        20.3789541052       14.6512750045       14.8804161817
  S        13.9271919978        5.6538478716       14.5822454078
  N        13.4435386294        5.8988798204       16.0478955043
  C        13.2425672124        7.8841982909       17.4934976739
  H        13.3230436452        9.8982893591       18.4998394486
  C        19.7854075162       14.9164571226       -3.5408135741
  N        19.6237613330       16.2938300207       -3.6620845154
  O        18.9226643515       18.1058920216       -2.3929108159
  H         9.2160843276       12.1796565680       11.3551951320
  H         8.1779354935       13.5407224496       11.5574877026
  C         7.8446844922       12.2173295353        9.7652855128
  H        19.8884234165       15.5199228817       15.1296296588
  H        20.6246325728       14.1939621337       15.8396767830
  C        21.6574006279       14.9076251514       14.0900831607
  C        12.7840038618        7.0654260163       18.5412715928
  S        20.2691803885       13.9527427164       -4.8910310469
  C        19.7474372601       17.0515170009       -4.9045448594
  H         8.5058279769       12.0325918165        8.9139296741
  H         7.5773682543       11.1694483794       10.0100605411
  C         6.5568852470       12.9673974259        9.5314414351
  H        21.6703703670       14.2358012671       13.1960097335
  H        22.5520026600       14.7147976370       14.7342779981
  C        21.7033442272       16.3547296435       13.6237900876
  H        12.6991493040        5.9800110774       18.4012882190
  C        12.3545432663        7.3871761637       19.8337707326
  H        20.2702029988       16.4269084644       -5.6841578592
  H        20.3127350605       17.9832453157       -4.7850983398
  C        18.4502598597       17.3922934734       -5.5156175722
  H         6.4708583011       13.7370425473       10.2512727745
  H         5.6372721925       12.2723408822        9.6013157364
  C         6.6218959183       13.6932872427        8.1834594590
  H        22.2549654964       16.5657523056       12.7187277370
  H        20.6970872862       16.5797266059       13.2830083297
  C        22.1418538021       17.4006324345       14.6640256953
  S        12.0993911871        8.9613935807       20.4718911309
  C        12.2527997966        6.2981869384       20.8561815629
  H        17.7001372513       17.4151124234       -4.7463755410
  H        18.0623106644       16.7726434161       -6.3139052279
  H        18.4161934673       18.3050585765       -6.0928212427
  H         5.7631286665       14.1178779211        7.8302994735
  H         7.3890252640       14.4488593147        8.3294880482
  H         6.9827375588       12.9668456489        7.3979231300
  H        21.9519664838       18.3891986112       14.2289025241
  H        21.5626635125       17.3456186977       15.5716701554
  H        23.2283719803       17.3846743334       14.8305598127
  C        11.8656303693        8.1367767664       22.1033416464
  N        11.8664827278        6.7726978083       22.0470489189
  O        12.4069706391        5.1235009586       20.5397277345
  S        11.5325130943        8.8571377856       23.7334205258
  C        11.8585029305        5.8678284430       23.2092829276
  H        11.5951542804        4.7826896293       22.9579703309
  H        11.0317069148        6.0810957076       23.9231566213
  C        13.2489349360        5.7740974216       23.8157090929
  H        13.5169960303        6.6577149709       24.3792476190
  H        14.0608923317        5.7794872136       23.0961595112
  H        13.2716494117        4.8869532733       24.4835045626
