352
 i =    41500, time =    41500.000, E =        24.8442445516
  H        11.6221785768        7.5710790724       32.0713436153
  C        11.3165253398        6.5182669875       32.1363374986
  H        12.2217081814        5.8567915092       31.8764311016
  C        10.3515073179        6.1756949815       31.0466415404
  C        10.8571161544        6.2873460560       33.5652952475
  C        11.0251508483        6.3463044449       29.6663716625
  H        10.0609642141        5.1176692824       31.2263232233
  H         9.5179285832        6.8085480921       31.2113843150
  H        10.6300047226        5.2247917343       33.7565005109
  H        11.6505787086        6.5286838957       34.2514535689
  H         9.9664080461        6.8933769828       33.7777044802
  C         9.9305015899        6.1733782856       28.5059176886
  H        11.7008514195        5.5218472326       29.5263380206
  H        11.5715951152        7.2915560255       29.7264358827
  C        10.5890017225        6.2629949919       27.1556639307
  H         9.4444238867        5.1568332377       28.7882727626
  H         9.3134735933        7.0208186139       28.6466021382
  C         9.7888919671        5.4944627272       26.0339106724
  H        11.5238037514        5.7716227853       27.3123876159
  H        10.5389388976        7.3066797549       26.8122411218
  C         8.4772957212        6.2390193940       25.6803613882
  H        10.3480339366        5.3926153193       25.1042547116
  H         9.5208196076        4.5764553914       26.5169300203
  C         7.3848887662        5.3940551468       25.0147028917
  H         7.9556602803        6.7916501012       26.5908456441
  H         8.8427408421        7.0468901878       25.0800936608
  C         7.0162416275        4.0307233580       25.7051466811
  C         7.9114667660        4.6376173602       23.8802073081
  C         6.0695167802        6.2411091565       24.8422725755
  C         7.3043941744        2.9501004968       24.8897709676
  C         6.5183334888        3.7116166109       26.9635649799
  C         7.8883372505        3.3505217008       23.7330997035
  C         8.4757489244        5.3290677525       22.8027712028
  H         6.2252246225        7.1700234696       24.2035879961
  H         5.7610338545        6.6533919809       25.8547251846
  C         4.8441543069        5.4852019026       24.1371456716
  S         6.8345111958        1.4661973745       25.6527613696
  C         6.4527552013        2.3292549150       27.1540948597
  H         6.4193253706        4.4953444691       27.6857279966
  C         8.2680732087        2.7150272259       22.5207361880
  H         8.5420771528        6.3910600589       22.8247919252
  C         8.9130674188        4.6978661849       21.6082735746
  H         5.0695349858        5.1781611541       23.1148839252
  H         4.5189589722        4.5588664012       24.6430903198
  C         3.5382618212        6.4010103397       24.2051554280
  C         6.0222950112        1.6684071802       28.3997917444
  C         8.8581339188        3.3661618349       21.4332819542
  H         8.0489503941        1.6682007298       22.4646111386
  C         9.3110863817        5.1645547324       20.3884375081
  H         2.7630402310        5.8492640194       23.6819853605
  H         3.5774066956        7.3227120844       23.7658623826
  C         2.9363929072        6.6142052932       25.5606401389
  C         6.0504167326        0.2611386893       28.6923898600
  C         5.7390124980        2.5317176155       29.5657481494
  C         9.1964479659        2.7560898193       20.1037751141
  C         9.4670538434        4.1256771187       19.5247822364
  S         9.5176766477        6.6782628782       19.6096129164
  H         2.1128136565        7.3241851409       25.4103620898
  H         3.6486662984        7.1774468453       26.1185937508
  C         2.5538778956        5.4244382707       26.4035789286
  N         6.3577428923       -0.7541015325       27.7991472880
  C         5.8419416875       -0.2235319236       29.9731494259
  C         5.4478673298        2.0018064672       30.8305789813
  H         5.8021347751        3.6463093392       29.5228251151
  C         8.0112005212        1.9662932038       19.4247758148
  C        10.4708813717        1.9103596278       20.0597453717
  C         9.8103982853        4.5222279381       18.2040685613
  C         9.8100845494        5.8469901291       18.1079156450
  H         1.8142840716        4.7833720292       25.8836817366
  H         3.3585318971        4.8471819295       26.7695353049
  C         1.9891525281        5.7889072885       27.8090831153
  S         6.5814240515       -2.1708008099       28.6442774268
  N         6.0993332194       -1.5968522708       30.0416151041
  C         5.4767007160        0.5179242971       31.1057715924
  H         5.1756246958        2.6621686176       31.6090854282
  H         7.7206604799        1.1545405109       20.0657285337
  H         8.3888798291        1.5794107167       18.5008839796
  C         6.7645224593        2.8135464374       19.1381018416
  H        10.5525841572        1.4727651207       19.0465678088
  H        10.2860149502        1.1450133742       20.7950623070
  C        11.7668881547        2.7906982392       20.3100966274
  H        10.0650318958        3.7903587303       17.4550589154
  C        10.1562511713        6.5774930168       16.8264201671
  H         1.1966870393        5.1162959911       28.1060860262
  H         1.4612344856        6.7382813309       27.7903809432
  C         3.0513570878        5.7869250579       28.8776148817
  C         5.2025480037       -0.1541270726       32.3194105453
  H         7.1805561111        3.7682483836       18.8746916838
  H         6.1806936719        3.0070220129       20.0684252015
  C         5.6565033819        2.2190941273       18.1761964661
  H        11.7828137026        3.4459538517       21.1847362755
  H        11.9599189807        3.3318903770       19.3947780303
  C        12.9678181302        1.8792917294       20.5581273272
  C        10.2218168262        8.0261292843       16.6312235215
  C        10.4941118287        5.7734083918       15.6450267213
  H         3.5852490419        4.8633806150       29.0612743466
  H         3.7624449581        6.5031206886       28.4927418236
  C         2.5183966429        6.0623328609       30.2717210205
  H         5.4148461108       -1.2107671309       32.2883767227
  C         4.8531660664        0.2354022653       33.5552052687
  H         5.3318528682        1.2831767049       18.5945331549
  H         6.1774624487        1.9760316089       17.2618877379
  C         4.3452689106        3.0356580309       17.9681730858
  H        12.7604140160        1.2394537885       21.4503825545
  H        13.1065644045        1.2225166035       19.7030530822
  C        14.3682655107        2.5813620154       20.6590582214
  N         9.8243081618        8.9031266874       17.6516892264
  C        10.6448289603        8.6067703645       15.4524369700
  C        10.7348939929        6.3527506689       14.4260875712
  H        10.6604362570        4.7201351392       15.6724461154
  H         1.7318919394        5.3497280302       30.4848230239
  H         3.3521754376        5.9848862631       30.9727267892
  H         1.9859785270        6.9855950370       30.3211210249
  S         4.5069607478        1.8857519663       34.1051373195
  C         4.8373446686       -0.7691109430       34.6972989374
  H         4.3882142856        3.8148007304       18.7370748613
  H         4.4501346963        3.5190370309       16.9555017162
  C         3.0965470389        2.1329150325       18.1176873074
  H        14.6103545287        3.1820465831       19.7420344064
  H        15.0798128892        1.7449644590       20.6302851436
  C        14.5747375675        3.3709873043       21.9691481890
  S        10.1066362885       10.4237637679       17.0570927516
  N        10.6929838473        9.9851677784       15.5818478178
  C        10.9317987524        7.8788759258       14.2747284604
  H        10.8449569873        5.6351484092       13.5855213346
  C         4.3868534085        1.2464006644       35.7000306228
  N         4.4349564542       -0.1312865336       35.8449363452
  O         4.9737196852       -1.9724450829       34.5562888400
  H         2.1620458676        2.7203590449       18.2209737154
  H         3.2422110478        1.5777281799       19.0184213990
  C         2.8056538620        1.0214712502       17.0671597244
  H        15.1227843232        4.2494109972       21.7554812281
  H        13.6019449981        3.5785761313       22.3009421830
  C        15.1239868325        2.4248766061       23.1148014123
  C        11.2963615410        8.4826855183       13.0482645676
  S         3.7493055855        2.1329752855       37.0706258351
  C         4.3486918335       -0.7257147531       37.1739692822
  H         1.9892620389        1.3782045395       16.5226067132
  H         3.5602278725        1.0114715265       16.3120057118
  C         2.5607976265       -0.3980931124       17.6654700557
  H        15.0283206015        1.3439783548       22.8758245506
  H        14.4560003777        2.5147765440       23.9989919091
  C        16.5590613065        2.5434539103       23.5179032026
  H        11.0807670402        9.5253266048       13.1528181607
  C        11.7609529706        8.1441540494       11.7870901439
  H         3.8450804855       -0.1657774901       37.9572397540
  H         3.8163528169       -1.7110895872       37.1516679857
  C         5.7720430435       -0.8930113739       37.7323919195
  H         3.5265517740       -0.8116055590       17.9959921439
  H         2.2833839254       -1.0201460615       16.8020388012
  C         1.4558969662       -0.3774352036       18.7678389251
  H        16.7842324152        3.5317172940       23.9962627780
  H        16.9134598900        1.8418231947       24.2289957532
  C        17.6052711190        2.3727723831       22.4700326951
  S        12.3975629830        6.6207920532       11.3313203277
  C        11.8894944743        9.1910756430       10.7921929064
  H         5.8498747609       -0.9513466699       38.8114131543
  H         6.2392891906       -1.7121765846       37.2269178617
  H         6.4119050441       -0.0198116018       37.5097512507
  H         1.9106165970       -0.0387311588       19.6091909145
  H         1.0776789062       -1.3334262543       18.9617895081
  H         0.5940847295        0.2859080732       18.5919683437
  H        18.6228854159        2.3989623158       22.8542553694
  H        17.4882260025        3.1683613785       21.7731099027
  H        17.3146604238        1.4312758276       21.9127183533
  C        12.7454700641        7.3393293698        9.8207702376
  N        12.4721064332        8.6427094739        9.7161916521
  O        11.5824371414       10.3619385657       10.9548351600
  S        13.5179921016        6.4641863275        8.4567962667
  C        12.6800877879        9.3981716016        8.4697162643
  H        12.8700100108       10.5066492614        8.7396497486
  H        13.5445817217        9.0154040578        7.9630008911
  C        11.4102358189        9.4930863587        7.5837067963
  H        11.1007974617        8.5398236891        7.0654478457
  H        10.5810157935        9.7663556465        8.2417802525
  H        11.3623708864       10.2920333186        6.8382910871
  H        21.1335600867       11.5044470749        3.5045073645
  C        22.0011540133       10.7567928441        3.5158408757
  H        21.3996267884        9.8722233624        3.7836011951
  C        22.8930741080       10.9791699836        4.6735635292
  C        22.6348223007       10.5478503755        2.1462395863
  C        22.0385711661       11.0550143514        5.9829500269
  H        23.5284764587       10.1355148653        4.7286968686
  H        23.5133440240       11.8267351171        4.6438739142
  H        23.1029800984       11.4630533330        1.7607984443
  H        21.8443226088       10.2762221072        1.4655808786
  H        23.4348254204        9.8469347048        2.2318428685
  C        21.5740612797        9.6790061518        6.4605214309
  H        22.7946334799       11.3824340774        6.7096782794
  H        21.1907667448       11.7404392255        5.7431195404
  C        20.5782408113        9.7903960917        7.6228181763
  H        22.3434658520        8.9998888948        6.6793082369
  H        21.0064822829        9.0561453247        5.7701464564
  C        19.3359425970       10.6352894450        7.5593366520
  H        21.0899933442       10.2399856631        8.4688475907
  H        20.2105074685        8.8195485552        7.8558166948
  C        18.2345013492        9.8452126797        6.8609773131
  H        19.0750081420       10.9528721544        8.5607869354
  H        19.5630004447       11.4367736628        6.9632537190
  C        16.9617352377       10.6871729030        6.7820759975
  H        18.0261325687        8.9550001381        7.4072605359
  H        18.4116281576        9.6208648500        5.8041166593
  C        17.2460900458       12.0031501336        6.1174944840
  C        16.4997129432       11.4001832905        8.0821993417
  C        15.8841509098        9.9056827392        5.9886183658
  C        17.0287823792       13.0727018657        6.9246660064
  C        17.6709322218       12.4210192852        4.8367512333
  C        16.5326916218       12.7488514333        8.1565361916
  C        15.9225854960       10.7396709577        9.2610122277
  H        16.3049748294        9.6075177310        4.9987123609
  H        15.7145381752        8.9974719819        6.5978666118
  C        14.6831699932       10.7306061664        5.6821388227
  S        17.3431204874       14.5947499764        6.1925590438
  C        17.8282576883       13.8018663141        4.7322439631
  H        17.8662019764       11.7309727956        4.0469392669
  C        16.1029175094       13.3575403882        9.2954665573
  H        15.8704846565        9.6108668995        9.2962881263
  C        15.5452186743       11.4129399549       10.3725865825
  H        14.9885971210       11.6886535726        5.2799240954
  H        14.2743294468       11.0055599022        6.6063267396
  C        13.6213817899       10.1450133454        4.7571625514
  C        18.2365198675       14.4873918675        3.5026497025
  C        15.5610843907       12.7631571418       10.4079830152
  H        16.1252214009       14.3901102319        9.3174184514
  C        15.0760856031       11.0548811032       11.6210084030
  H        12.6376768561       10.7193599626        4.8033605096
  H        13.4629127404        9.1405092360        4.9319087962
  C        14.0138712308        9.9802117131        3.2694740548
  C        18.1257494263       15.8888850797        3.2071579495
  C        18.6872556005       13.6433152057        2.3608572717
  C        15.1613538481       13.5379482637       11.6179976852
  C        14.9008736561       12.2156861718       12.4383421367
  S        14.6969886066        9.5606323323       12.4081623483
  H        14.8012635412        9.2313224245        3.1530465562
  H        14.6112913560       10.8523406020        2.9820994437
  C        12.8199230785        9.8044166636        2.3002912217
  N        17.8733265790       16.8385534344        4.1969953407
  C        18.3951219766       16.4430168856        1.9317308658
  C        18.8907491610       14.2175995547        1.1144856351
  H        18.5842441212       12.6164797490        2.2975573630
  C        13.8273532428       14.2954887269       11.5864214025
  C        16.3564671529       14.3086925030       12.2384373545
  C        14.5432139472       11.8128396468       13.7109545061
  C        14.3468395689       10.4390025137       13.8264766530
  H        12.2275382598        8.9072426397        2.4962303196
  H        12.1499798490       10.6327627719        2.4152442658
  C        13.3466133971        9.7030704857        0.8692237226
  S        17.9625169185       18.2765701531        3.4826603934
  N        18.2707932171       17.8438976892        1.9403092490
  C        18.8241605003       15.6801787843        0.8625781130
  H        19.1463482508       13.5818337956        0.2767208827
  H        13.9560712334       15.1583004000       10.8892034260
  H        13.5377852281       14.6200406159       12.5689224983
  C        12.6388923104       13.4869838716       11.1253763808
  H        16.5585389099       15.1534294154       11.5877230854
  H        15.9184781146       14.7628760005       13.1213350305
  C        17.6194907247       13.5322136858       12.5551708342
  H        14.4315743272       12.5279568759       14.5772984934
  C        14.0203510249        9.7884130926       15.1320706176
  H        13.9760935495        8.8960232127        0.6873107124
  H        13.9597426728       10.5880006431        0.7269441174
  C        12.2297282415        9.7000332354       -0.1589112626
  C        19.0846432741       16.3318717968       -0.3918067956
  H        12.8927171565       12.9391817123       10.2064372441
  H        12.2418320342       12.7424679351       11.8099969129
  C        11.4429450877       14.2831536833       10.7369390093
  H        18.0835332078       13.1067880179       11.6343165465
  H        17.3572306959       12.7074279229       13.2323593487
  C        18.6393912023       14.3345233832       13.3502493081
  C        14.0302882495        8.4101390298       15.3366438921
  C        13.7683805674       10.6465074379       16.3094475930
  H        11.9343013506        8.6709105431       -0.4531116756
  H        11.3219726022       10.2308323279        0.1419484946
  C        12.7068143322       10.1721419874       -1.5271692726
  H        19.1219360758       17.3457046600       -0.3707312902
  C        19.2232619344       15.8671354286       -1.6829002427
  H        11.7495008386       14.9242613253        9.8904181927
  H        11.1361830987       14.8812787003       11.5647945335
  C        10.3590550671       13.3239589277       10.2267901185
  H        18.8942996097       15.1736074353       12.7431004683
  H        18.1209927305       14.6410631676       14.2954856141
  C        19.9478873830       13.6540493516       13.6841749120
  N        14.4209108856        7.4622892566       14.3628940426
  C        13.7227790605        7.8518664620       16.5789470280
  C        13.4324519257       10.0727001382       17.5087684542
  H        13.7297051227       11.7185876879       16.1606276957
  H        13.0229461752       11.2652360639       -1.3760159884
  H        12.0208652749       10.0646396499       -2.3792731924
  H        13.5048688840        9.5486785652       -1.8290507126
  S        19.3315218162       14.2412967010       -2.1566657082
  C        19.4019579586       16.8383661078       -2.7628860137
  H        10.6740313211       12.4083733606        9.7096975503
  H         9.7800758877       13.0248053177       11.1229739796
  C         9.4342861099       13.9683218520        9.2179265433
  H        20.1605506379       12.8307205897       12.9866433927
  H        19.8256126744       13.1470464629       14.6550056233
  C        21.1335960816       14.5298923904       13.5942909511
  S        14.3587030733        6.0000487643       15.0165741648
  N        13.7364870414        6.4464927774       16.5237344760
  C        13.3420526553        8.6006115753       17.6798477127
  H        13.2889366990       10.6967544828       18.3437610028
  C        19.5236686121       14.8239519295       -3.8049405255
  N        19.5737989985       16.1789524952       -3.8894091526
  O        19.4076415062       18.0568641684       -2.6743758302
  H         9.2257105942       14.9657823357        9.5468361205
  H         9.9239693764       14.1391302782        8.2831763179
  C         8.2197798031       13.1662159970        8.9606790517
  H        21.9357296930       13.8250523086       13.7041338188
  H        21.3341083228       14.9664640612       12.5744910758
  C        21.1703286446       15.6672598519       14.6512718436
  C        12.9518599089        7.9789043309       18.8951181316
  S        19.9312425801       13.8681176587       -5.2907314342
  C        19.4689243423       16.8823011653       -5.1535002603
  H         8.2448327122       12.8237713030        7.9460063741
  H         8.1294674270       12.3583408005        9.6671410027
  C         6.9061489437       13.9878215011        8.9615584166
  H        21.5891781753       15.2821880883       15.5638727388
  H        20.1892548670       16.1371534729       14.8649341705
  C        22.0177413369       16.8158340414       14.1139310186
  H        13.2616227081        6.8878100530       18.8837952836
  C        12.3283063922        8.3775875041       20.0416855434
  H        19.9517514031       16.4501811620       -5.9761938876
  H        20.0088672030       17.8373741973       -5.1149663053
  C        17.9957242392       17.0623256377       -5.6106127218
  H         6.1874900817       13.4979329688        8.2905163172
  H         7.1564289064       14.8619660848        8.5087632605
  C         6.3395743682       13.9918707910       10.4096627312
  H        23.1196661790       16.5064970134       14.0080928463
  H        21.8126363392       16.9888996214       13.1181923530
  C        21.8612883245       18.0605793696       14.9032009930
  S        11.8378785973        9.9667011957       20.4511343855
  C        12.3126953881        7.4267197871       21.2026228675
  H        17.8515045815       16.9578122667       -6.6822512867
  H        17.6790778000       18.0577596446       -5.3629039771
  H        17.2587307520       16.4510867593       -5.0949511795
  H         6.8860429948       14.5733738558       11.1090072238
  H         5.3039336717       14.2307631228       10.3795913628
  H         6.4285232574       13.0434434464       10.8582318407
  H        22.3680925249       18.9303381003       14.4340731263
  H        20.8214187160       18.3589573545       14.9906103518
  H        22.3190250244       17.7900711416       15.8205041699
  C        11.3717946171        9.3267047007       21.9908234885
  N        11.6836907279        8.0404376221       22.2374552945
  O        12.6700552878        6.2773697415       21.1752847168
  S        10.6657874838       10.2790246409       23.2632487262
  C        11.5852078697        7.3595787791       23.5328710296
  H        11.5644614956        6.3118203498       23.4598512594
  H        10.5982413348        7.6344944927       23.9544115783
  C        12.8247057978        7.5109356719       24.3558073848
  H        13.6142312174        7.6872258167       23.6589769190
  H        12.8490972214        6.7234154991       25.0485957656
  H        12.6806679918        8.3971539564       24.9287877888
