352
 i =    68000, time =    68000.000, E =        25.0768903666
  H         9.9189179013        5.1696486831       31.9736614060
  C        10.6710688096        5.9903997746       32.2087221129
  H        10.0294220237        6.6737307227       32.7910286327
  C        11.2703718965        6.7824316584       30.9966798565
  C        11.7926717214        5.5479400943       33.1664828726
  C        12.0522421515        6.0330581923       29.8697488595
  H        10.4105609469        7.3426081695       30.6233721316
  H        11.9502930817        7.5419232544       31.3127435108
  H        11.6469214002        4.5395268006       33.5794555091
  H        12.7833782173        5.5312151057       32.7165122524
  H        11.8046202763        6.2677512866       33.9333496836
  C        11.1143494866        5.2904927436       28.9210470638
  H        12.8135877468        5.3592047811       30.2497731856
  H        12.4937008433        6.8139531333       29.2864709329
  C        10.2620580929        6.1711614872       28.0953910677
  H        11.7123608301        4.6914540539       28.2022475381
  H        10.6002350946        4.6003079721       29.5427066625
  C         9.5564541607        5.4015493580       26.9248250243
  H        10.8048861556        6.9804682527       27.7115796981
  H         9.4365139906        6.5162779332       28.7403060526
  C         8.3208437988        6.0162032400       26.2098233790
  H        10.3440121956        5.2492798186       26.1948287982
  H         9.1497775218        4.4035663284       27.3014198109
  C         7.3534044618        5.1529607039       25.3076250662
  H         7.6286778648        6.4194160981       26.9759623556
  H         8.6619137978        6.8452191376       25.5753738902
  C         7.0815626318        3.8163075730       26.0109918364
  C         7.9205842505        4.4539758820       24.0839523620
  C         6.0414642185        5.8095581512       24.9186788883
  C         7.4533905207        2.6710526483       25.2647947612
  C         6.5719495201        3.4352013590       27.2795886868
  C         7.9002234360        3.0606239698       24.0077101005
  C         8.3855428654        5.1059004827       22.9489777505
  H         5.6166863074        5.2285633496       24.1272282004
  H         6.2773808818        6.7191908903       24.4592439778
  C         4.9444937687        6.1078548601       25.9255039512
  S         7.2533793345        1.1434189394       26.1040980678
  C         6.5840372496        2.0781825646       27.4852922390
  H         6.2923434604        4.1752633739       27.9322020539
  C         8.2151547112        2.4369201250       22.8133844916
  H         8.5107218208        6.1892726787       22.9785399206
  C         8.7117449892        4.4766515059       21.8058143867
  H         4.9394799031        5.3674616875       26.7496145190
  H         5.2042763125        7.1788890626       26.2589970493
  C         3.5612317716        6.2233319854       25.3057094885
  C         6.1277252765        1.3575130711       28.7568409346
  C         8.6027713057        3.1421931507       21.6944436607
  H         8.0210725461        1.3560107448       22.8340689073
  C         9.1412533439        4.8227923866       20.5464917722
  H         3.2606049730        5.4597205005       24.6039708016
  H         3.5697892710        7.1605960168       24.6352756569
  C         2.5776250129        6.3972522344       26.3023738107
  C         6.2572728235       -0.0326404979       29.0693045113
  C         5.5962164888        2.2050016703       29.8634677341
  C         8.8763629267        2.3835497849       20.3776521027
  C         9.1902994197        3.7221183216       19.6796695943
  S         9.4762514718        6.3100609462       19.8061709600
  H         1.8189085469        7.1171027102       25.9679098874
  H         3.1574892312        6.8134644732       27.1895654573
  C         1.9930652461        5.0482873299       26.6121560195
  N         6.6719270089       -0.9321798169       28.0663870785
  C         5.9129200730       -0.6243628103       30.2584235290
  C         5.3451814173        1.6096466174       31.1056896890
  H         5.6335662498        3.2837736275       29.7965650765
  C         7.6114187376        1.8477815583       19.6527084078
  C        10.0474218937        1.4227560443       20.4525897068
  C         9.5449098734        4.1316959522       18.3961214911
  C         9.8134484330        5.4679964089       18.2958311061
  H         1.2058387847        4.5976025959       25.9402572736
  H         2.8289887420        4.3286962063       26.5913812692
  C         1.5210587089        5.0581975177       28.0600484423
  S         6.8957627530       -2.3475564290       28.8374757972
  N         6.3340521605       -2.0014657078       30.3113047212
  C         5.5257957244        0.1706240796       31.3724726591
  H         4.9076970411        2.2514414956       31.9372229547
  H         7.2427065646        0.9588690006       20.2252573891
  H         7.9590228737        1.4373203542       18.7062813873
  C         6.5625211812        2.9233512446       19.4526528202
  H        10.5576887450        1.3443780756       19.5079968598
  H         9.7237360972        0.3938582064       20.7966887434
  C        11.0524712719        2.0453027871       21.3847934408
  H         9.6388939418        3.3621475498       17.5839633595
  C        10.1850151010        6.1364521093       17.0306215253
  H         0.8437059248        4.2087586254       28.2677546568
  H         1.0414169164        5.9544871299       28.4462159969
  C         2.7009645337        4.7304711466       28.9962651503
  C         5.2355980807       -0.4296107659       32.6501795827
  H         6.7857974719        3.5030498384       18.5604222132
  H         6.4659136205        3.6232875518       20.2978465746
  C         5.0784302211        2.3978112237       19.3445893533
  H        10.6244712094        2.1278006637       22.3952273090
  H        11.3222496726        3.0747674583       21.1134024684
  C        12.3981219954        1.2505833146       21.5518901530
  C        10.1388336669        7.5691505581       16.8961193153
  C        10.2073338045        5.3514012284       15.7818415866
  H         2.9391821245        3.6340991906       28.8379062967
  H         3.6209212141        5.2353298179       28.8492040085
  C         2.3394297521        4.7904112966       30.4403867760
  H         5.3433070916       -1.4964699339       32.6047420866
  C         4.8812440328        0.0042717305       33.8838646382
  H         4.3991960187        3.2366935843       19.0829583413
  H         4.7706376156        2.0205120584       20.3228363847
  C         4.8694697802        1.3043828878       18.2646241877
  H        12.1687387254        0.5239167570       22.3535728529
  H        12.6940709917        0.8412152895       20.5779146155
  C        13.5035655163        2.2347699473       21.9278226686
  N         9.8961184796        8.4367790724       17.8817225847
  C        10.4618488168        8.1798486267       15.6613554915
  C        10.6142505971        6.0117497244       14.5945039096
  H        10.1766313087        4.2810427970       15.8330479497
  H         1.3346403515        5.1176592518       30.6965791765
  H         2.5856966206        3.9525650055       30.9420448510
  H         2.9088486904        5.4823187329       30.9847789109
  S         4.5056498173        1.6120865897       34.3216005015
  C         4.8591541369       -0.9938679385       35.0309878069
  H         5.2884272675        1.4960153839       17.2309985623
  H         5.3261648349        0.3388082391       18.5463809252
  C         3.3130480937        1.1005862927       18.1051185041
  H        13.1488431909        3.0430939304       22.5567899161
  H        13.9241830783        2.6030381790       20.9974411453
  C        14.6484983631        1.7092529492       22.7601789714
  S         9.9889495361        9.9703441905       17.3619012848
  N        10.4206775407        9.5631433949       15.8212032114
  C        10.7133933981        7.5530436117       14.4491451821
  H        10.7255957157        5.4118812545       13.6638444999
  C         4.4970416955        1.0533468182       36.0298978904
  N         4.5880052969       -0.2992169695       36.1884252657
  O         5.2984593673       -2.1331918014       34.9948320925
  H         3.0142826319        1.4370777716       17.0519104617
  H         2.8144843585        1.8302452900       18.7523306161
  C         2.9967699024       -0.3446777270       18.5781470190
  H        14.2977282376        1.0009308472       23.4696317178
  H        15.4066001231        1.1892590434       22.1731729428
  C        15.5262707811        2.8972358256       23.2489153662
  C        11.0265520864        8.3735914324       13.3168691302
  S         4.1053846511        1.9871863855       37.4638586270
  C         4.7658852993       -0.9778510750       37.4915026777
  H         3.6677709955       -0.6242070771       19.3467354397
  H         1.9510251685       -0.4343285176       18.9528825282
  C         3.1163781967       -1.3444922360       17.4181267299
  H        15.0594425149        3.4197273773       24.1314821098
  H        15.8048653338        3.5542979692       22.4124367172
  C        16.8499954465        2.2699441344       23.7435743428
  H        10.7635241641        9.4447298453       13.4404769257
  C        11.5689568928        8.1007677975       12.0704528875
  H         4.1050148487       -0.5675156478       38.2360209275
  H         4.5013985543       -2.0516904582       37.3158119316
  C         6.2171805709       -0.8519823908       38.0400349453
  H         3.2337123474       -2.3998905906       17.7532744264
  H         4.0067679535       -1.1809305559       16.7468294259
  C         1.8745652455       -1.4544225139       16.5011244921
  H        17.3094574795        2.9151310343       24.5039202089
  H        16.6528285760        1.3581176095       24.3280066071
  C        17.8740375783        2.0246274866       22.6055782503
  S        12.4295295616        6.6436342504       11.5201196623
  C        11.7220564340        9.2660147638       11.1203932029
  H         6.4649567899       -1.6975359857       38.7100946924
  H         6.9091362105       -0.9424735901       37.1642203756
  H         6.3517588059        0.0668769401       38.6384034909
  H         1.7830086187       -0.5052601258       15.9790069315
  H         0.8911265631       -1.5979062966       16.9515732226
  H         2.0313998415       -2.2595411026       15.7987908840
  H        17.5763461852        2.6856607442       21.7476979946
  H        17.8742128224        1.0695759882       22.1639328459
  H        18.9021452918        2.2326385386       22.9588976067
  C        12.7295784478        7.5323578838        9.9866079050
  N        12.4264355234        8.8570919999       10.0126259753
  O        11.2147499064       10.3675146497       11.3060232937
  S        13.6648944458        6.8905709138        8.6460807278
  C        12.3981069725        9.7107577189        8.8455418178
  H        12.3327968873       10.7401149570        9.2524499113
  H        13.4107125806        9.6007876215        8.4355445619
  C        11.2314276867        9.3920752125        7.9263379964
  H        11.4033018242        8.5850777573        7.3549939030
  H        10.2872652503        9.3380269709        8.4369914457
  H        11.0756928710       10.2697390047        7.2647881948
  H        22.4133438707        8.7026488013        4.2553561847
  C        22.6963823985        9.7555212054        4.0438669024
  H        23.3775410747        9.6148701899        3.2588540397
  C        23.2619017915       10.4234830099        5.2813926931
  C        21.5091924262       10.4549573783        3.3065705196
  C        22.2360521849       10.5011736396        6.4494718902
  H        24.1397619999        9.8378600615        5.5372715924
  H        23.7198343257       11.4310486402        5.0980582290
  H        21.6039530955       11.5700169374        3.5093910338
  H        20.5747459278       10.1416812329        3.7143267501
  H        21.5289437108       10.1916791832        2.3218756547
  C        21.4506428816        9.2552096797        6.8270770896
  H        22.7465545822       10.8678242139        7.2925986495
  H        21.5122933484       11.3206735004        6.1924653099
  C        20.5435357266        9.6050744616        7.9865710437
  H        22.2058953639        8.6898937688        7.3581436294
  H        21.0679431228        8.7432770092        5.9519732903
  C        19.4055232716       10.5641937051        7.6444136231
  H        21.2648464816        9.9841383825        8.6994723069
  H        20.0483519110        8.7047327521        8.3915133004
  C        18.1428948865        9.7411562110        7.2526614030
  H        19.1186171528       11.1823857648        8.4797153495
  H        19.6378860463       11.2755061542        6.8598645445
  C        16.9055424261       10.6219378764        6.9720911173
  H        17.9471815937        9.1888896934        8.0817574050
  H        18.4234468883        9.1175112303        6.4058063416
  C        17.2000338461       12.0288862258        6.2620536024
  C        16.4160597332       11.3772409736        8.1961661197
  C        15.7816077372        9.8542018673        6.3360403541
  C        16.9355132453       13.1196872459        7.0790966144
  C        17.5599560690       12.4527503625        5.0055572574
  C        16.4417277584       12.7660515106        8.3116204309
  C        15.8923463828       10.6896642265        9.2894709686
  H        16.1923386541        9.3977522102        5.4188455624
  H        15.6471744299        8.9027434981        6.8403193400
  C        14.4884218401       10.6944753205        6.0684052458
  S        17.3226810626       14.5675535370        6.3487526357
  C        17.7455250723       13.8151921223        4.8714139481
  H        17.7296528851       11.6925739090        4.3371374145
  C        16.1221294316       13.3942959184        9.4598030810
  H        15.9199528829        9.6445592241        9.1927550834
  C        15.6377890685       11.2990764665       10.4600764598
  H        14.7415818735       11.7398306295        5.7023178261
  H        13.9154879259       10.8453250223        6.9556589405
  C        13.5564207506       10.0021463733        5.0181842064
  C        18.2892544812       14.5712629006        3.6472524496
  C        15.7313300395       12.6231781535       10.5967987558
  H        16.2292878721       14.4570835051        9.5117567419
  C        15.2087325635       10.8482531006       11.7021614127
  H        12.5444437543       10.3746853309        5.0027306055
  H        13.3479166026        9.0102381088        5.3983131800
  C        14.1413543038       10.1024166868        3.5931126747
  C        18.3222063665       16.0222456477        3.4706772059
  C        18.7391619362       13.8252166477        2.4852207862
  C        15.3243172482       13.2945124952       11.8986770137
  C        14.9987160488       11.9390349872       12.5455041423
  S        14.8104568292        9.3207709539       12.4298249786
  H        14.7884740378        9.3816789607        3.4542580443
  H        14.6147188186       11.0699711790        3.6068388655
  C        12.9934034267       10.0658174272        2.5358886774
  N        17.9344120795       17.0026827885        4.3962236782
  C        18.7005117681       16.6018822465        2.2188556418
  C        19.1719022978       14.3243450301        1.2803797767
  H        18.8162702419       12.7467006329        2.6125018801
  C        14.0710845642       14.1444297220       11.8368975481
  C        16.5795627152       14.0186367486       12.6490310601
  C        14.6155366909       11.4612678482       13.7615700275
  C        14.5775858253       10.0931131538       13.9332800565
  H        12.3141063352        9.3493863995        2.9921917730
  H        12.5093957143       11.0662833409        2.4602960367
  C        13.5694972082        9.4383100022        1.2233926691
  S        17.9613718155       18.4382164792        3.6705409104
  N        18.5762785398       18.0127870265        2.2044889600
  C        19.0329363578       15.8051172280        1.0569033891
  H        19.5142546696       13.6331892927        0.5189240879
  H        14.3429429434       15.0510244690       11.2429989700
  H        13.7423143907       14.4477517327       12.7836012881
  C        12.9148590260       13.4198532190       11.1759785267
  H        16.7914087868       14.8937772172       12.0668531641
  H        16.3196953049       14.3047435977       13.6664669668
  C        17.9194589775       13.2919828831       12.7883785203
  H        14.2917367080       12.2220134404       14.4365276149
  C        14.1652999754        9.4195069640       15.2007012214
  H        12.7537163221        8.7592626234        0.9143169176
  H        14.5495323059        8.8998215747        1.3814136361
  C        13.6857082059       10.5759506074        0.0792749782
  C        19.3194336822       16.4460586532       -0.1942388294
  H        13.0788938698       13.0953754022       10.1520205910
  H        12.6830261872       12.6143046301       11.8627087268
  C        11.6863273364       14.3067217872       11.0479933810
  H        18.0478610846       12.7409564491       11.8387640686
  H        17.8090059286       12.6283502846       13.6799854365
  C        19.1412625260       14.1967193389       13.0305147749
  C        13.9997633144        8.0565825957       15.3664406414
  C        13.9912859708       10.2095958376       16.4550327233
  H        13.5442436409       11.5733140688        0.4172874289
  H        14.6918139265       10.5739636653       -0.2935963057
  C        12.7722305067       10.3640404214       -1.0701893322
  H        19.2825051235       17.4968728606       -0.2251032702
  C        19.7528064203       16.0641548918       -1.4408060103
  H        11.9399686127       14.9877446346       10.2363901891
  H        11.5694545766       14.9026707059       11.9325992852
  C        10.5110332763       13.5090238835       10.6546676291
  H        19.9199218504       13.9146135699       12.3008625012
  H        18.9187120800       15.2655674763       12.9411173943
  C        19.8848356156       13.8044856770       14.3306742293
  N        14.1845950135        7.1164249441       14.3460835756
  C        13.7406078719        7.3784584411       16.5460612194
  C        13.6755669199        9.5926846313       17.6878639188
  H        14.0809563210       11.2597963779       16.3617176487
  H        12.6368903815       11.2830853984       -1.6791127708
  H        11.7442377881       10.2474891439       -0.6933470499
  H        13.0328108327        9.5775283987       -1.7650430013
  S        20.0045974533       14.4941730388       -1.9794268673
  C        19.9323331393       17.1345520608       -2.4578198995
  H        10.7328410715       12.5601720022       10.2649752204
  H         9.8675316740       13.3789514647       11.5598798591
  C         9.6359012442       14.1915613391        9.6568742372
  H        20.4053751098       12.9272907997       14.2073696786
  H        19.1695929920       13.4790572237       15.0619899788
  C        20.7106044880       14.9252236009       15.0320958533
  S        13.8872185625        5.5681752446       14.9073356387
  N        13.8093501079        5.9563545722       16.4898007700
  C        13.5085128590        8.0903809811       17.7378317036
  H        13.7147022305       10.2318642391       18.5056680630
  C        20.1799994854       15.1978965478       -3.5849372744
  N        20.1664329859       16.5628704329       -3.6384207993
  O        19.6957256850       18.3419399312       -2.3191988248
  H         9.2277541812       15.0296830123       10.1686681287
  H        10.1874339283       14.5003386022        8.7840630905
  C         8.5638301242       13.1669937913        9.2081094948
  H        19.9867496370       15.5582666968       15.5264776451
  H        21.3631368957       14.3849587029       15.6945799755
  C        21.5972519897       15.6772714779       14.0793626627
  C        13.1289862978        7.3588983570       18.9309789854
  S        20.6046187455       14.3363523600       -5.0083591601
  C        20.2903565626       17.3217674583       -4.9219587498
  H         9.0761647764       12.4977089278        8.4749759863
  H         8.1717526362       12.5280666574        9.9831582589
  C         7.3678747065       13.9524571228        8.7222077797
  H        20.8709928319       16.2940550191       13.5041293018
  H        22.1852406652       14.9073113538       13.4628883350
  C        22.5679117819       16.6553397131       14.7893925522
  H        13.0355499791        6.2768931031       18.8222916790
  C        12.7974696065        7.8336032839       20.1911516240
  H        21.0910897833       17.0729252081       -5.6584019671
  H        20.5052990840       18.3487089778       -4.7384503990
  C        18.9179686570       17.3594961385       -5.5884713885
  H         6.9142907929       13.2486014609        7.9544761455
  H         7.6882023384       14.9230604233        8.3706219837
  C         6.1482026163       14.0315832201        9.7099163206
  H        23.1907654903       16.0211504165       15.4487838928
  H        23.2872521136       17.0865664260       14.0746417204
  C        21.8757469389       17.7592949387       15.6702892625
  S        12.4786724710        9.4038912685       20.5802615427
  C        12.5786843462        6.8630724273       21.2684044061
  H        18.6935467784       16.3553326396       -5.8091196283
  H        18.7905994128       18.0396669366       -6.3945268801
  H        18.0929640887       17.6350901730       -4.8527404828
  H         5.8970363994       13.0829588558       10.2067061678
  H         6.1303270559       14.7527086024       10.5400016089
  H         5.2516024188       14.3213142448        9.0439902705
  H        21.6287267834       17.3582051209       16.6187411262
  H        22.5367748325       18.5150101323       16.0857819749
  H        21.0278722677       18.2497168299       15.2118611021
  C        12.0317799699        8.7840307288       22.1727260817
  N        11.9471547681        7.4841175598       22.2589644692
  O        12.6969835528        5.6784622924       21.1556680761
  S        11.6620034872        9.8046781865       23.5916576317
  C        11.6167553263        6.8050505977       23.5376985988
  H        11.1300922566        5.8172276782       23.3405375079
  H        10.8450043568        7.3665324280       24.0184426525
  C        12.7895222177        6.6607668225       24.5023481147
  H        13.5833469459        7.3599000900       24.3048512729
  H        13.2291990298        5.6775102665       24.4302092868
  H        12.3633596334        6.7426584115       25.5021622946
