352
 i =    88200, time =    88200.000, E =        25.5021677462
  H        10.0545491606        7.6808620868       31.3284870523
  C        10.8121408426        6.9316222051       31.5364744907
  H        11.5269619357        7.5336070876       32.0558363583
  C        11.5180081979        6.0109272024       30.5783417742
  C        10.1613876567        6.0279500326       32.5708727773
  C        10.5956789734        4.9975621423       29.8667408648
  H        12.0071181565        6.6586192880       29.8125053556
  H        12.4099620416        5.4881674597       30.9572569785
  H         9.2042738453        5.6529953288       32.1071430431
  H        10.8076564753        5.1987112188       32.7382230166
  H        10.0145896975        6.3849008338       33.5727991627
  C         9.6503467937        5.6536410387       28.8001387233
  H         9.9892239999        4.3843804025       30.5719285940
  H        11.1576637543        4.4519051369       29.1433793407
  C        10.1672939749        5.8065363659       27.3836532935
  H         8.7211134563        5.1404684777       28.8420454172
  H         9.3740812299        6.7071514070       29.1372703325
  C         9.2840714164        5.0842638522       26.3543277719
  H        11.1920188459        5.5074244254       27.3245666790
  H        10.1922084341        6.9246378238       27.2232312782
  C         8.0572459592        5.8897073658       25.9110770358
  H         9.9582323035        5.0271120253       25.5009584878
  H         9.0303449701        4.1971738019       26.8164215029
  C         7.0448562908        4.9500491685       25.2219186146
  H         7.4971988728        6.5051252323       26.6505959598
  H         8.3851535634        6.5825393710       25.1615343722
  C         6.7006922376        3.6392385596       25.9996569548
  C         7.5825847438        4.2051626533       24.0669850708
  C         5.6839741408        5.6279228918       24.7056151605
  C         7.1121532239        2.5331896775       25.2155352598
  C         6.0738083757        3.2691477727       27.1825143702
  C         7.6850233227        2.8783777062       24.0062700818
  C         8.1607608108        4.8845167310       22.9732006090
  H         5.1096161293        4.9045582746       24.2634383788
  H         5.8407320250        6.2777980500       23.8370627032
  C         4.8098275875        6.1770169502       25.8694388623
  S         6.7197603855        1.0339923107       26.0876823787
  C         6.1106612470        1.9165489185       27.4083933947
  H         5.7848501299        4.0018086478       27.9040765850
  C         8.1688619520        2.2387767970       22.9142519309
  H         8.1105302098        5.9340129273       23.0710070273
  C         8.6854748444        4.2147811848       21.9028182349
  H         4.7542739878        5.5568396070       26.8077374994
  H         5.1444371392        7.1561020726       26.1534469355
  C         3.3561986876        6.4053455918       25.4303820687
  C         5.5095356027        1.3319042556       28.6964056985
  C         8.7621429738        2.8417547156       21.8172686973
  H         8.0364818461        1.1313761753       22.9538646597
  C         9.2251568505        4.5668553266       20.6230223467
  H         2.9133078809        5.5870466431       24.8353362221
  H         3.1679010760        7.3644823497       24.8922317912
  C         2.4145064948        6.5736581348       26.6485679778
  C         5.5170959001       -0.0558121723       28.9186309143
  C         5.2210014758        2.2236688336       29.8102131438
  C         9.1689480361        2.1585720319       20.5095150977
  C         9.4872196080        3.5064724964       19.7781075654
  S         9.3498965900        6.1342521844       19.8683238300
  H         1.5212878467        7.0787465199       26.3561396377
  H         2.8027187564        7.3668674067       27.3336303780
  C         1.9680391980        5.2760896572       27.3334959591
  N         5.9433416012       -1.0629818948       28.0334625739
  C         5.1817770021       -0.4954091627       30.1957908735
  C         4.9187300216        1.6735124804       31.0943550671
  H         5.1700299388        3.2954012563       29.6856655708
  C         7.9933110048        1.4191846153       19.9842453444
  C        10.5056759932        1.2934194959       20.7343134692
  C         9.8013026043        3.9641356898       18.4927843017
  C         9.8622864708        5.3161052311       18.4055426558
  H         1.7845169744        4.5585920227       26.5739708206
  H         2.7078278211        4.8000327239       27.8313424414
  C         0.8712808193        5.5191594435       28.3522967584
  S         5.6283277534       -2.4839664998       28.7038649935
  N         5.1351777934       -1.9129688496       30.1662361744
  C         4.9369396369        0.2185355332       31.3362834612
  H         4.7884864030        2.2938021852       31.8767771019
  H         7.6457156955        0.6457101432       20.7398707521
  H         8.3614481072        0.8840501129       19.0934106619
  C         6.7545515964        2.2317869962       19.5016467123
  H        10.7682799541        0.7782844127       19.7980062106
  H        10.3637415105        0.5546094308       21.5052984319
  C        11.7087701284        2.1956803521       21.0525779012
  H         9.9468970098        3.2022030769       17.7422579793
  C        10.2041621836        6.0807015569       17.2074312893
  H         0.3052834811        4.5769776677       28.4902204686
  H         0.2016961086        6.2736820254       27.9296798947
  C         1.3586184107        5.9388237011       29.7301187685
  C         4.6506428107       -0.4425676760       32.6260118969
  H         6.9868034991        2.7306664819       18.5633363739
  H         6.5366861332        2.9758090091       20.2502850094
  C         5.4779993617        1.3509996850       19.3486336685
  H        11.5815046198        2.8977709663       21.8841377837
  H        11.8557276947        2.7543755913       20.1797694610
  C        12.9421034681        1.3568115778       21.2715486614
  C        10.1897969540        7.5031908485       17.0968540732
  C        10.4119412538        5.3657197173       15.9423070646
  H         1.8767323451        6.8597777676       29.5467728903
  H         0.4738580425        6.2004562073       30.3514727410
  C         2.3248461848        5.0654736302       30.5754520901
  H         4.8993480125       -1.4170920452       32.6382835693
  C         4.3684562484        0.0422694934       33.8817069440
  H         5.2471790006        0.7727066648       20.2567109670
  H         5.5796789197        0.6716666818       18.4699351282
  C         4.3007031362        2.1319197530       18.8965604541
  H        12.9570784843        0.8348734305       22.2213673418
  H        12.9552033862        0.5487125210       20.5815211110
  C        14.1614695409        2.2778676885       21.3721505088
  N        10.0683212027        8.3947025029       18.1836771104
  C        10.3900617436        8.1243641710       15.8492891101
  C        10.4923820648        5.9967175461       14.7320829852
  H        10.4010059506        4.3367864532       15.9031597476
  H         2.6827509913        5.6619348407       31.4146917745
  H         1.7850432738        4.1785614645       30.9935532158
  H         3.1954368216        4.7116260857       30.0660294426
  S         4.0807749643        1.7097084289       34.3146684857
  C         4.4048427306       -0.8774393862       35.0267086666
  H         4.3123664258        3.0996237092       19.2792807099
  H         4.2227064820        2.1903304689       17.7908954693
  C         2.9516471293        1.5378874677       19.4411166177
  H        13.9873140920        3.0052872280       22.1806034734
  H        14.3190025882        2.7624495001       20.4864242605
  C        15.4428651185        1.4996946034       21.6954963914
  S        10.0482857951        9.8752911856       17.5312000946
  N        10.2555299904        9.5342969276       15.9551450470
  C        10.6293780488        7.4701339141       14.6221380870
  H        10.3210410943        5.3206558487       13.9198741420
  C         3.9007946007        1.1053191303       36.0211319658
  N         4.1057017374       -0.2472214162       36.1771254194
  O         4.6090833439       -2.0846466211       34.9088982715
  H         2.3205967535        2.4312860297       19.6429169038
  H         3.2073592776        1.0185533849       20.4107470080
  C         2.1865316993        0.7543779914       18.3759534506
  H        15.4339472794        0.4446920460       21.4871047214
  H        16.2278167261        1.9910515292       21.0678779540
  C        15.7682265071        1.6945177982       23.2072319891
  C        11.0223305506        8.2252189832       13.4706788006
  S         3.4896727230        2.1232704244       37.4485815533
  C         4.2228340856       -0.8951996022       37.4747698215
  H         1.2945634355        0.4305956983       18.8267399210
  H         2.0351288600        1.4055515898       17.5386469076
  C         2.7626435492       -0.5991856560       17.9706973979
  H        15.0721993145        1.1832853939       23.8502170659
  H        15.7195439615        2.7778049257       23.4005615009
  C        17.1414751070        1.2610131963       23.6035400580
  H        10.7924096036        9.2026223422       13.6147818723
  C        11.4342836516        7.8554112676       12.1953007265
  H         3.5748997941       -0.3414387662       38.2162418086
  H         3.7615128425       -1.9037261997       37.5026852402
  C         5.6773954874       -1.1566023063       37.8660747908
  H         3.1885798465       -0.9566495030       18.9143572915
  H         3.5935221149       -0.4052582600       17.3029700693
  C         1.7758310409       -1.5786799570       17.3215116423
  H        17.2136452046        1.5451320673       24.6618517089
  H        17.1760798042        0.1257722768       23.5447634566
  C        18.3264553527        1.8440423342       22.8649993782
  S        11.8359373963        6.2492334717       11.6651290181
  C        11.4785555069        8.9291264253       11.1354577025
  H         5.9288308384       -2.2643031193       38.0670196825
  H         6.3873206473       -0.7047475499       37.2324614212
  H         5.7468188576       -0.6449388387       38.8324175731
  H         1.5905365132       -1.4023863602       16.2678202021
  H         0.9108381659       -1.5669164236       17.9608874750
  H         2.1757605916       -2.5439387118       17.3909901642
  H        18.3802365975        2.9335454989       23.0109694314
  H        18.2993242201        1.5567281517       21.7781714028
  H        19.2202323100        1.4436225610       23.3398656327
  C        12.1142556934        7.0692046701       10.1230086948
  N        11.9463055293        8.3845871002        9.9877309522
  O        11.2258482948       10.1488673667       11.3277748596
  S        12.6554036156        6.1138783695        8.6927352011
  C        12.1113694685        9.2166079469        8.7463507811
  H        12.3884321359       10.2299595329        9.0000309448
  H        12.8083244421        8.6890650698        8.0870280423
  C        10.7648300992        9.2770135817        8.0107707545
  H        10.2353419482       10.1950618731        8.0003067277
  H        11.0541164044        8.9570773340        6.9695908074
  H        10.0179960381        8.5416858713        8.2373568926
  H        21.1344050235       10.9692064928        3.0403479700
  C        21.8157976166       10.2005641317        2.7045318284
  H        21.1943670992        9.3030978196        2.4105833023
  C        22.7207900736        9.9457517529        3.9383332826
  C        22.6390666869       10.7080193757        1.5081168473
  C        22.0673967450        9.7659851195        5.2858064522
  H        23.4783263387        9.1580125893        3.7499385441
  H        23.2779569454       10.8953858441        4.0831009811
  H        23.3940866405       11.4078090717        1.7852277531
  H        22.0603387453       11.1849903826        0.7865320345
  H        23.0716384669        9.8235496664        0.9967570936
  C        21.1354515089        8.5499299529        5.3154162924
  H        22.8315342682        9.6858068651        6.0788971002
  H        21.4948093724       10.6364321823        5.6267577591
  C        20.1774719813        8.8232420664        6.4490180153
  H        21.7718935755        7.6938110876        5.3965050803
  H        20.6061140086        8.2684135834        4.4197184645
  C        18.8069644470        9.4613279825        6.0936984150
  H        20.7400454740        9.4666359041        7.1818958747
  H        19.8817939177        7.9623596656        7.0009154894
  C        17.9285843730        9.6313512621        7.3072067413
  H        19.0390626032       10.3144631426        5.5420496526
  H        18.3330653948        8.8909222571        5.3380154055
  C        16.6988545694       10.5296632843        6.9852377562
  H        18.5297870578       10.0927448553        8.0616052871
  H        17.7093411422        8.7361084406        7.8814927761
  C        16.9581435144       11.9117895797        6.3023258546
  C        16.1588810876       11.2195119355        8.2367855346
  C        15.5305107100        9.8585939257        6.1205448274
  C        16.6109733174       12.9942429360        7.0825906923
  C        17.3288256784       12.3193592413        4.9951889745
  C        16.1021722461       12.5902263609        8.3037248428
  C        15.6668058749       10.5732838073        9.4124828647
  H        15.8601183444        9.7134434872        5.0847261483
  H        15.3889518499        8.8458828851        6.3865379948
  C        14.2548796044       10.6659843117        6.1081684395
  S        16.9395667271       14.5180735126        6.3270570377
  C        17.3816247405       13.6977270837        4.8075516965
  H        17.5190407749       11.6044677227        4.2212812572
  C        15.7713444567       13.1235933815        9.5183256542
  H        15.7437518281        9.5053666159        9.3681611393
  C        15.2012383711       11.1611176420       10.5621987391
  H        14.4877050888       11.7153915728        6.0894167592
  H        13.7548626055       10.4248223780        7.0591689585
  C        13.2796114304       10.1721116270        5.0220740211
  C        18.0754888162       14.3052846427        3.6580181624
  C        15.2663103386       12.4933659403       10.6912520505
  H        15.9821829162       14.1537728819        9.4998145204
  C        14.8293397670       10.7468418850       11.7780592881
  H        12.2710311571       10.4859364395        5.2227298641
  H        13.2435125023        9.0876104519        4.8850717146
  C        13.5844544936       10.8065755932        3.7286320668
  C        18.0554231760       15.6862474193        3.3747596571
  C        18.5665585515       13.3708692760        2.6035945574
  C        14.9197560739       13.1995809128       11.9813465097
  C        14.5799735661       11.8336698443       12.6531022468
  S        14.6045039879        9.1708025152       12.4613769707
  H        14.4635639651       11.4161200930        3.8382788560
  H        12.8296841877       11.6364391939        3.4594457866
  C        13.7486963904        9.8086595090        2.5767584403
  N        17.7469046981       16.7225345899        4.2716170689
  C        18.4185792108       16.1789653171        2.1405950106
  C        18.8675182293       13.9593536240        1.3278367613
  H        18.6096081672       12.3312588195        2.6130430859
  C        13.6927612000       14.1549001610       11.9115224029
  C        16.1618043677       13.9615598410       12.4430649853
  C        14.2012344352       11.3949730729       13.8998149143
  C        14.2138679411        9.9968286993       13.9230850605
  H        14.7284779028        9.2844227863        2.6099144561
  H        12.8444671054        9.1837459473        2.5531914467
  C        13.9383340371       10.4218444361        1.1610994604
  S        18.0192015077       18.1547407171        3.5551507112
  N        18.3406046358       17.6066453370        2.0118821290
  C        18.8110019841       15.4229832763        1.0970706093
  H        19.1826253277       13.3432862183        0.4715857542
  H        13.9061045774       15.1936454763       11.5095153526
  H        13.2631557330       14.1545137254       12.8794281845
  C        12.5410515049       13.6106828769       11.0545147799
  H        16.2110411156       14.8269791546       11.8816986440
  H        16.0556496304       14.2888378095       13.4742502099
  C        17.4306550863       13.0123393709       12.4222460283
  H        14.0347342618       12.0305527425       14.7183477399
  C        13.8722854689        9.1861124675       15.1675079375
  H        14.9067030987       10.1758795386        0.7619907068
  H        14.0726204645       11.5073011263        1.2687356822
  C        12.8054884833       10.0471414357        0.2306923313
  C        19.0636519280       16.0498543228       -0.1598206400
  H        12.7797556663       13.7180315280        9.9828732313
  H        12.2370860662       12.5763392799       11.2321940805
  C        11.2327397028       14.4222623857       11.2242468365
  H        17.6895594035       12.8378632793       11.3484880642
  H        17.2502134146       12.0147686930       12.7007407539
  C        18.5783288647       13.4818609223       13.3025177569
  C        13.9296203490        7.7677122131       15.2853836003
  C        13.7177680944        9.8830893591       16.4125859594
  H        12.5700903514        8.9894545643        0.3209435666
  H        11.8636480505       10.5333546566        0.4398309593
  C        13.0627328547       10.4151606734       -1.2038335477
  H        18.9754920827       17.1133379087       -0.1809855820
  C        19.3609570233       15.5587241475       -1.4513607396
  H        11.4073312223       15.5173572516       11.3100436219
  H        10.7763163245       14.2781072197       12.2104089626
  C        10.1060781007       14.1803649831       10.1858468134
  H        18.5910529322       14.5478610631       13.0065489837
  H        18.3295772129       13.3557125384       14.3713421115
  C        19.9426647273       12.8203219749       13.1298488099
  N        14.1255092623        6.8263769471       14.2634270496
  C        13.7343534889        7.1455179295       16.5099489269
  C        13.4402644247        9.2788522572       17.6232293090
  H        13.6909381838       10.9089501760       16.4028204548
  H        13.8542411420        9.7670454640       -1.6434100314
  H        13.3413280162       11.4516150727       -1.2808246619
  H        12.2231468674       10.2784204465       -1.8722894720
  S        19.6131273229       13.9460326894       -1.9247100707
  C        19.4157246236       16.5044076689       -2.5635745634
  H         9.3292812498       14.8522969335       10.4498720729
  H        10.4464801659       14.5732542497        9.2602106651
  C         9.6250028393       12.7784085982       10.1646632826
  H        20.2453678840       12.7254589188       12.0487104745
  H        19.8101176104       11.8122005742       13.5718882644
  C        21.0426737907       13.3461422017       14.0762601582
  S        13.9148068383        5.3115600590       14.8371351385
  N        13.7709205728        5.7550369131       16.4137085005
  C        13.3333627987        7.8091311183       17.7120818188
  H        13.2510790195        9.7851840887       18.5486562808
  C        19.6711952128       14.5755268477       -3.5663389296
  N        19.6600302739       15.9062180987       -3.7137872241
  O        19.3713292493       17.7125462879       -2.3870350565
  H        10.3775424664       12.0844733367        9.9238102794
  H         9.3861980116       12.5349496707       11.1724427467
  C         8.4839439272       12.6867993407        9.2089856473
  H        20.8566651540       13.2908068856       15.0932324985
  H        21.9160297074       12.7530138518       13.9425530268
  C        21.4245830738       14.7730259988       13.7388306183
  C        13.1576042610        7.1396310989       18.9070862179
  S        20.3188757113       13.7662655681       -4.9828471487
  C        19.9013415845       16.6492810370       -4.9060453257
  H         8.5763075819       13.4881253202        8.4086461132
  H         8.4954650444       11.7419810983        8.7332581845
  C         7.1582208580       12.7677685426       10.0204869264
  H        20.8693765798       15.2091999121       12.9607040007
  H        22.4112668562       14.9117565201       13.4353581973
  C        21.2827600251       15.7002233798       14.9273718305
  H        13.5699281941        6.1891541565       18.8434176792
  C        12.5526272134        7.4561697237       20.0897744444
  H        20.4658059995       16.1489582096       -5.6469521377
  H        20.4053436638       17.6220475271       -4.6879179405
  C        18.5692793872       17.0390976946       -5.5940064001
  H         7.3796304346       12.9614819602       11.0642944704
  H         6.6964695347       11.7699671554       10.1018323206
  C         6.0722671453       13.7447550955        9.5353381173
  H        20.2690180295       16.1015823668       14.9242703990
  H        21.5291556101       15.2293650621       15.8362841193
  C        22.0684009789       16.9739583470       14.7514685065
  S        11.8597653722        8.8825324226       20.6499202637
  C        12.5798868326        6.3242965239       21.1081616227
  H        17.6793863436       17.0831867457       -4.9244739355
  H        18.4180369642       16.2718550718       -6.3584042645
  H        18.4748585322       18.0103738859       -6.1070031826
  H         6.5013615925       14.7750353823        9.2482099872
  H         5.5139493812       13.3408446865        8.6617362318
  H         5.3038322770       13.9030683478       10.2582151770
  H        23.1833573739       16.8989299303       14.9589041413
  H        21.9013172360       17.4045749289       13.7463584276
  H        21.7481703042       17.6514336780       15.4726291032
  C        11.5263806171        8.0237663791       22.1716905575
  N        11.9133595956        6.7034309356       22.1671587375
  O        13.0656334726        5.2247945586       20.9017195483
  S        10.2912031951        8.5236199317       23.3647023188
  C        11.9221187199        5.8366941496       23.3225165530
  H        11.9762406281        4.8111663018       22.8956537199
  H        11.0601846090        5.8864435335       23.9511173422
  C        13.0768911524        6.0699866579       24.2462867584
  H        12.9878594089        5.3834385871       25.0647756600
  H        13.0671357155        7.1252945459       24.6045557055
  H        14.0487522099        5.7560297604       23.8389770389
