352
 i =    26300, time =    26300.000, E =        25.1537388913
  H        11.8230271625        7.1206576144       32.0640949027
  C        11.5472464539        6.0363878205       32.0655401839
  H        12.4020436739        5.3960258208       31.8354002689
  C        10.4374439714        6.0022491914       31.0621172357
  C        11.1588783618        5.8869918579       33.5692064057
  C        11.0309392030        5.8189517944       29.6634142581
  H         9.8076875313        5.1348146693       31.1886583982
  H         9.7763028146        6.8163737264       31.2894136641
  H        10.6897127327        6.7793193039       33.8371698493
  H        10.4429878690        5.0301208397       33.7297943848
  H        12.0190009173        5.8651704555       34.2656319942
  C         9.8111391879        5.8203696641       28.6888336994
  H        11.6313423587        4.9261376694       29.6695355998
  H        11.5476526674        6.6816812741       29.3642482145
  C        10.3891628909        5.9799167186       27.3382906971
  H         9.2468733707        4.8884267572       28.7647258341
  H         9.1508384804        6.6542153467       29.0278847251
  C         9.3881428550        5.3673145144       26.2712499807
  H        11.1438719219        5.1851651196       27.2559698994
  H        10.8425446855        6.9428498084       27.1736073032
  C         8.0693300423        6.2453082018       26.2000864384
  H         9.9405068229        5.3542833454       25.3012079185
  H         9.1321986388        4.3538783070       26.5082308437
  C         7.0167977543        5.5462778255       25.4504197416
  H         7.5958655797        6.4252318434       27.1694872728
  H         8.2408478434        7.2240431355       25.8641787011
  C         6.7317044446        4.1976382543       26.1598543233
  C         7.5053968292        4.8436168013       24.2213248438
  C         5.7948074038        6.3407982994       25.1734039033
  C         6.9824722021        3.0577672242       25.3829583881
  C         6.2936571895        3.8319565701       27.4361711620
  C         7.4984497915        3.4775699410       24.1783446907
  C         8.0900173309        5.4929757834       23.1117745040
  H         6.0582469040        7.0702520661       24.4937898074
  H         5.5391580509        7.0283382327       25.9450526972
  C         4.5284005314        5.5641491449       24.8091223879
  S         6.7709566940        1.5554355078       26.2265415037
  C         6.1976606466        2.4713515075       27.5859121823
  H         6.1533493807        4.5314181374       28.2112267455
  C         7.9579813512        2.8830435516       23.0334226943
  H         8.0461744834        6.5994669351       23.0981073631
  C         8.6023566156        4.8834593954       21.9842377298
  H         4.6817442523        5.0245210330       23.8157966446
  H         4.3209690237        4.7216772269       25.4213111242
  C         3.2407312790        6.4108035898       24.7365067489
  C         5.7315255623        1.7358375487       28.8383647299
  C         8.5267839405        3.5455432098       21.8903428512
  H         7.8902113561        1.7465490830       22.8500988543
  C         9.1062849169        5.2428604900       20.7509579776
  H         2.4038124466        5.9837891916       24.2415990539
  H         3.4517392777        7.3110928951       24.2454211813
  C         2.7569300820        6.6943330941       26.0833781346
  C         5.9700706593        0.3975208665       29.1470864068
  C         5.1741370887        2.5830090116       29.9061576406
  C         8.9318269485        2.7764344247       20.7158439268
  C         9.2375232268        4.0744410632       19.9666922133
  S         9.1838533624        6.6600971777       19.8666577246
  H         2.0774236093        7.5690547560       25.9736763356
  H         3.6108668028        7.1015793163       26.6243947188
  C         2.2143765571        5.4459477102       26.8176506868
  N         6.4417023874       -0.5584812926       28.2257493056
  C         5.6308557580       -0.1382539608       30.3778935816
  C         5.0038422413        2.0519809499       31.2378022885
  H         5.1594066012        3.6770705256       29.7962244911
  C         7.8604252942        1.9871036021       19.9548473439
  C        10.2670401022        1.9734077567       20.9537183644
  C         9.6166212038        4.3587109688       18.6460156067
  C         9.6017416558        5.7331833747       18.4201638964
  H         1.2355071857        5.0991115923       26.3868310237
  H         2.8276465944        4.5500446914       26.7215991163
  C         1.8778924521        5.8152495077       28.2359614976
  S         6.3691606055       -1.9897830501       28.9057520875
  N         5.9464258558       -1.5451858683       30.3935006304
  C         5.1770206557        0.6001399545       31.5111467373
  H         4.5428484566        2.7451468831       31.9359277774
  H         7.4909928051        1.1241556337       20.4873113932
  H         8.2808305203        1.6609765528       18.9763518034
  C         6.5827028798        2.7767037542       19.5351091812
  H        10.4629494791        1.5398081401       19.9359490193
  H        10.1019927592        1.1815316089       21.7124354838
  C        11.5675138387        2.7064278814       21.3191092569
  H         9.7489690205        3.5154100043       17.9565575040
  C         9.9351483177        6.5371534031       17.1788217363
  H         1.1410454723        5.0907973829       28.5474284625
  H         1.3711996261        6.7595447476       28.2766777611
  C         3.1549832886        5.7054179693       29.1097896814
  C         5.0026679321       -0.0826389694       32.6915645340
  H         6.7329696237        3.5682405292       18.7921516626
  H         6.1151572032        3.3571583459       20.3085263249
  C         5.6174838663        1.8116666957       18.8475895875
  H        11.4620195684        3.1274773246       22.2907306907
  H        11.7346980727        3.5335356203       20.6772613154
  C        12.8696176165        1.8405008730       21.4239213611
  C        10.0873678916        7.9682903420       17.0361126636
  C        10.0691026063        5.7998013607       15.9094421969
  H         3.6300314266        4.7842752726       28.9814756524
  H         3.9527457866        6.3996433949       28.8289545923
  C         2.7778377147        5.7253535024       30.6392907585
  H         5.0471444167       -1.1370214308       32.5833585062
  C         4.7205274556        0.3238534373       34.0129360606
  H         5.2578351646        1.0678185253       19.5602755623
  H         6.1443613229        1.3305400609       17.9848200397
  C         4.4279684913        2.6077507441       18.2801355499
  H        12.9634971836        1.2638445033       22.3838546651
  H        12.8455923713        1.1396173335       20.5740924910
  C        14.1479128388        2.6015820161       21.2797252940
  N         9.9215328854        8.9053980146       18.0827615589
  C        10.3877471516        8.6387059991       15.8721110224
  C        10.3942388513        6.4519445000       14.6776693162
  H         9.8153220572        4.7582222288       15.9136160482
  H         2.8977724035        6.6967556710       31.1243903637
  H         1.8716111546        5.2660867981       30.8820442938
  H         3.5353580925        5.2442994245       31.2229771761
  S         4.4004076114        1.8945573169       34.6331209037
  C         4.6206055960       -0.8175509705       34.9599110944
  H         4.1846404931        3.4956553768       18.8825361185
  H         4.7345510062        3.0342184476       17.2458253183
  C         3.1590760545        1.7666927775       18.2193266787
  H        14.0550920522        3.3323281526       20.5101616809
  H        14.8382890556        1.8378602951       21.0223102801
  C        14.5446465088        3.1139736929       22.6676689862
  S        10.0493463516       10.4147839863       17.4918458629
  N        10.5168115466       10.0108112560       15.9998825386
  C        10.5193207838        7.9199823966       14.6859501741
  H        10.3765695598        5.8437534014       13.7531335071
  C         4.3995302024        0.9786522520       36.1852851828
  N         4.4359299658       -0.3693368950       36.1863201794
  O         4.7217255555       -2.0150263612       34.6900254635
  H         2.4400468551        2.3622943629       17.7591739625
  H         2.6699006835        1.5339378466       19.1590837757
  C         3.3712763700        0.4449518564       17.4375385360
  H        15.2203961300        3.9064469135       22.4271037726
  H        13.6817290338        3.5724673042       23.1794701534
  C        15.1735085857        1.9816058184       23.5622013932
  C        10.8466606359        8.7090874895       13.5472322598
  S         4.0545770030        1.7977827143       37.7170717703
  C         4.4116519556       -1.2111232095       37.3618181046
  H         3.6277949740        0.5462334824       16.3952340368
  H         4.2404142195       -0.0367414159       17.8453135714
  C         2.1562487222       -0.4058932706       17.4386666043
  H        15.1435325821        1.0369581465       23.0474193226
  H        14.6482006006        1.9916864111       24.4607060233
  C        16.5988586929        2.3054113057       23.9764273319
  H        10.5640087959        9.7196895135       13.5538247097
  C        11.2461867962        8.2640194791       12.3115408383
  H         3.7141220625       -0.9575423292       38.1371941184
  H         4.1509842199       -2.1631402132       37.0436534282
  C         5.7891738022       -1.2442959578       37.9672347053
  H         2.2497747175       -1.0423404526       16.6007441024
  H         1.3574696074        0.3022881424       17.2648187638
  C         2.0385701082       -1.2951528617       18.6880334874
  H        16.7749379429        3.2763288894       24.3894135723
  H        16.9010137846        1.6670632338       24.8003330041
  C        17.5387236067        2.0532312893       22.8603605989
  S        11.7045486778        6.6854314779       11.8456589872
  C        11.3699817579        9.3036686710       11.2832372073
  H         5.8633773319       -0.7626310712       38.9740641882
  H         6.1856442322       -2.2812764034       38.0945276563
  H         6.5098927086       -0.8346200861       37.2705620579
  H         2.2704647260       -0.8389277018       19.6708807207
  H         2.7454817919       -2.1085229246       18.6215612144
  H         1.0589146190       -1.7791436244       18.7500142268
  H        18.5329767582        2.1863338720       23.1853271071
  H        17.5726488123        2.7285639212       22.0046678532
  H        17.4088133775        1.0257827343       22.4838920102
  C        12.0507132953        7.4312477362       10.2857129653
  N        11.9032987616        8.7350223216       10.2064268807
  O        11.0987163940       10.4681988224       11.4859004940
  S        12.4475063787        6.5442877034        8.8379999377
  C        12.1506751916        9.4874022664        9.0559203283
  H        12.3743545585       10.5222429696        9.4077238114
  H        12.9975061416        9.1675625598        8.4346316314
  C        10.8127211074        9.5419528406        8.2916345876
  H        10.4391449958        8.5213827022        8.1777246559
  H        10.0295368677       10.1057556086        8.7281801544
  H        11.0665304359       10.0378000324        7.3518728599
  H        20.9785135892       11.3944763599        3.3362434700
  C        21.4776090436       10.4415663194        3.4630594142
  H        20.6988786034        9.7162794657        3.6750713478
  C        22.4867050468       10.5814784254        4.5905963569
  C        22.3118589974       10.0039281420        2.2102895168
  C        21.6676606325       10.8389131001        5.8885198375
  H        23.1877242401        9.7544644693        4.6020119513
  H        23.1954670272       11.3639566133        4.4338788874
  H        21.6325408892       10.0801336572        1.3439248281
  H        22.7095525883        8.9707326967        2.2757813860
  H        23.1188851818       10.7383642477        2.1512233859
  C        21.0000202927        9.5459785210        6.3461715685
  H        22.4115071713       11.2144286425        6.5943682074
  H        20.9620985127       11.6264016816        5.6509794473
  C        20.2052718767        9.6907661675        7.6944354723
  H        21.6500781263        8.7169933529        6.5048573707
  H        20.3597601044        9.1167824081        5.6411334429
  C        18.9403655673       10.5542760524        7.5525224117
  H        20.8733738591       10.0887871067        8.5116030141
  H        19.9033073324        8.6725807866        7.8929427196
  C        17.6753531861        9.7599532436        7.0951362494
  H        18.7073790057       11.0696760921        8.5280047893
  H        19.1242866254       11.3096019726        6.8024536833
  C        16.4224459363       10.5950734770        6.8810076913
  H        17.4248225004        9.0991042479        7.9942894284
  H        17.8304351669        9.2240084171        6.2204698518
  C        16.7703232138       11.8852798640        6.0884555305
  C        16.0450871750       11.3624859594        8.1204254080
  C        15.3042889820        9.7922123673        6.2504263811
  C        16.5868647554       13.0119922692        6.8778065975
  C        17.2916517172       12.2373532287        4.8309720730
  C        16.0779087315       12.6755238009        8.1243418304
  C        15.5600041203       10.7533374273        9.2308515853
  H        15.6976093727        9.3838073657        5.3548182835
  H        15.0705507340        9.0759673932        7.0116508064
  C        14.0853044444       10.6460096628        6.0192634859
  S        17.0623512489       14.4735800431        6.1311690766
  C        17.4673425186       13.6133551324        4.6906705832
  H        17.5309455414       11.3931187738        4.2209434457
  C        15.7709761212       13.3683269180        9.2718716562
  H        15.4518522060        9.6589350002        9.2187525768
  C        15.2682590140       11.4170328062       10.3839092672
  H        14.2473381208       11.6616724537        5.6735523533
  H        13.6412441096       10.7592428688        6.9970593794
  C        12.9885010755       10.1284607781        5.0814607765
  C        17.9886885237       14.2516291641        3.4185930018
  C        15.3065721150       12.7885970094       10.4189323772
  H        15.8461815149       14.4488209638        9.2330621111
  C        14.8891201557       11.0474343163       11.6107506433
  H        12.0293913019       10.4803119455        5.5527501804
  H        13.0869122386        9.0937710019        4.9911985246
  C        13.2431309719       10.8124916970        3.7698566646
  C        17.8906391019       15.6394185379        3.1067718517
  C        18.5920621589       13.4664527379        2.2869132076
  C        14.9987999663       13.5481233219       11.6744346002
  C        14.7478872832       12.1580161268       12.4689869115
  S        14.7635132808        9.5393383282       12.5071326204
  H        14.3318470625       10.8349091893        3.7851639098
  H        12.8481347494       11.7972169731        3.8730460587
  C        12.6468980896       10.2246186368        2.5019546673
  N        17.4342666485       16.5654927517        4.0125350164
  C        18.1852916233       16.2175760939        1.8463586023
  C        18.8093953874       14.0350834301        1.0159431584
  H        18.8270187941       12.4663674771        2.3852494897
  C        13.7537809676       14.3480235480       11.5784786453
  C        16.1571834713       14.3616517727       12.3638064257
  C        14.3817392398       11.7033273499       13.7674289587
  C        14.3282322940       10.3657904600       13.9691749665
  H        12.8798873158        9.1333786859        2.5519969195
  H        11.5699363820       10.4713598527        2.5431239288
  C        13.3862689440       10.7778026660        1.2791950312
  S        17.4402240765       18.0548598371        3.3875494742
  N        17.9250886048       17.6015935391        1.8604053150
  C        18.6202723255       15.4595328271        0.7868952469
  H        19.1548205948       13.3619755810        0.2149308598
  H        13.8515632674       14.9865286020       10.7340112362
  H        13.6305345824       15.1799799275       12.3404919579
  C        12.4470125702       13.6277891524       11.3908114325
  H        16.6465682648       15.0587432219       11.7416723689
  H        15.9052198685       14.9351887972       13.2707646611
  C        17.3163792047       13.4593537036       12.8947704119
  H        14.2594924984       12.3691676323       14.6081994766
  C        14.0204826276        9.6330258091       15.2539099546
  H        14.4411423680       10.8291560792        1.5088047206
  H        13.1098465551       11.7761934737        1.0920208877
  C        13.1254377995       10.0250862513       -0.0095245639
  C        18.9206323707       16.1624914129       -0.3986419271
  H        12.5222842126       12.8129201596       10.6284499942
  H        12.2475902003       13.1669539581       12.2791521979
  C        11.1175298927       14.4280785643       10.9938510520
  H        17.6980364393       12.7810240331       12.1435237402
  H        16.9066449504       12.9289935241       13.7657280299
  C        18.4943536067       14.3993242786       13.3134171615
  C        13.8983243808        8.2497430506       15.4278867247
  C        13.8330967455       10.4546492274       16.4585900887
  H        13.8534056806       10.3337202323       -0.7729820583
  H        13.2811321917        8.9752797570        0.1084551537
  C        11.7342856584       10.3381268133       -0.6504262228
  H        18.6034740122       17.1627069995       -0.4128856810
  C        19.4053033090       15.8354121381       -1.5878659257
  H        11.3795883040       15.2415943269       10.2608978975
  H        10.8856860493       15.1435130051       11.8472633908
  C        10.0243755550       13.5158210272       10.4855181377
  H        18.9167109588       14.8982083260       12.4035215077
  H        18.2094572070       15.2080335742       13.9879972707
  C        19.6776967229       13.7241732419       14.0360286354
  N        14.2301537824        7.3045379032       14.4598985735
  C        13.5963854192        7.6900015467       16.6474506417
  C        13.5944706153        9.9138864667       17.7341555816
  H        13.8951877197       11.5741166111       16.5254516240
  H        10.9389004733       10.2712366498        0.0448569858
  H        11.6381982736        9.6854093697       -1.5348044249
  H        11.6962634624       11.3530373536       -1.0736013257
  S        19.6383636382       14.1837464514       -2.0443693846
  C        19.4811292372       16.8286300918       -2.6629364558
  H        10.5142158612       12.8326397964        9.7587980417
  H         9.4924485063       13.0391557822       11.2885508094
  C         9.0719890477       14.3667654014        9.5854986121
  H        20.0330381066       12.9724688287       13.3530821054
  H        19.3384506416       13.3569095911       15.0076093167
  C        20.8525283916       14.6161185645       14.2842197599
  S        13.8492129655        5.8696043977       15.0555610160
  N        13.3865067351        6.3820567010       16.5282846815
  C        13.4009949498        8.4215679086       17.8436681185
  H        13.4274809331       10.5562623033       18.5290632722
  C        19.9114483013       14.7913193577       -3.6092408302
  N        19.8182348694       16.1448304722       -3.7502735896
  O        19.1822456127       18.0406101874       -2.5199105041
  H         8.7202122978       15.1889482534       10.2404938890
  H         9.7060042349       14.7488511600        8.7655660676
  C         7.9288733871       13.4284766127        9.0104923745
  H        21.6842561148       13.9341938710       14.5447443858
  H        21.1274270872       15.1316103303       13.4243780282
  C        20.6034477610       15.5801333580       15.4616092043
  C        12.9894084714        7.6918124183       19.0238437251
  S        20.1824377837       13.7707025300       -5.0857539747
  C        19.8911506785       16.8454797232       -5.0676167742
  H         8.3204400128       12.9424456388        8.0735666012
  H         7.8001509315       12.6020984907        9.6629753464
  C         6.6175079493       14.1223197006        8.7131753318
  H        21.3134618603       15.2186239665       16.1787523489
  H        19.6572188438       15.3962090110       15.9430219900
  C        20.7923267053       17.0879454225       15.1327199122
  H        13.3921463491        6.5841365863       18.9382817174
  C        12.4456464301        8.0715238978       20.2144323754
  H        20.5021654278       16.2785859941       -5.7278527817
  H        20.2440914344       17.8467102860       -5.0276190795
  C        18.5467449072       16.8415587265       -5.7901507808
  H         6.1155403013       13.6458945486        7.8585749104
  H         6.7430512717       15.0983329962        8.3602424486
  C         5.6635217060       14.0683784791        9.9206116869
  H        20.2039862172       17.3131824847       14.2229478654
  H        20.3130074065       17.6625711265       15.9053291693
  C        22.2767625004       17.4583616222       14.9155291829
  S        12.0281645367        9.6783885057       20.6955734538
  C        12.1061025191        6.9975652754       21.1264781085
  H        18.0845523179       15.8906788955       -5.4153953207
  H        18.6515392822       16.6789314350       -6.8552570681
  H        17.8796552059       17.7196491997       -5.5236706124
  H         6.1608064782       14.6273505267       10.6903728906
  H         4.8234563167       14.6674300713        9.5660438809
  H         5.3814127949       13.0493666506       10.2308224285
  H        22.6602783864       16.9487013659       13.9934205835
  H        22.3991782836       18.4973946484       14.7444708244
  H        22.8431771657       17.2206711037       15.8676398101
  C        11.4765753854        8.9246888817       22.2370570274
  N        11.5082714887        7.5779483708       22.2411675817
  O        12.3063591928        5.7822965197       20.9812814095
  S        10.8706097791        9.7456071210       23.7053330442
  C        11.2751886206        6.7437114756       23.4320920436
  H        10.9577714303        5.7844428412       23.1572301994
  H        10.3928153504        7.1691836929       23.9287365416
  C        12.6845448273        6.5698657192       24.1834447084
  H        13.1380392004        5.8320391636       23.5649033859
  H        12.4968383349        6.2549479219       25.1915351901
  H        13.3553425921        7.4475231146       24.1692300744
