352
 i =    19500, time =    19500.000, E =        25.4244263102
  H        11.5735132149        7.7582398107       32.2537019878
  C        11.1857508632        6.7406231396       32.0214077705
  H        12.0725149339        6.3945523094       31.4762971282
  C         9.8634737714        6.9642054811       31.1964013013
  C        11.0863330409        5.9324235490       33.2973100202
  C        10.1099019882        7.1835202462       29.7066735996
  H         9.1803967398        6.1476365766       31.3548615502
  H         9.3367752055        7.8201060949       31.6646059506
  H        10.0891238238        5.9144020029       33.7135664290
  H        11.4503793197        4.9486739343       33.0699831782
  H        11.7978508819        6.3640251846       34.0812455778
  C        10.1776094043        5.9073661212       28.9249664243
  H        11.0909452146        7.5938188047       29.4321038849
  H         9.4265069614        7.8862377859       29.1321297099
  C        10.8432572503        6.0029150368       27.5639472323
  H        10.6811766291        5.1130170991       29.5549424807
  H         9.1667306601        5.7126607753       28.8063552065
  C         9.8425450816        5.4393562167       26.5427763414
  H        11.5718717813        5.1850396236       27.6143438961
  H        11.2651275617        6.9633535515       27.3141022614
  C         8.6443824510        6.3501221957       26.2604871482
  H        10.2975602417        5.2691953797       25.6061787914
  H         9.4852754377        4.4955293637       26.9668028893
  C         7.5195301802        5.6067433735       25.5441653156
  H         8.1305879986        6.7663206198       27.0803403086
  H         8.9226036202        7.1402985959       25.6027861491
  C         7.0847027725        4.2800178970       26.1911646568
  C         7.8660494971        4.9278473756       24.2540237300
  C         6.2032113371        6.4817083300       25.4916134175
  C         7.2031737217        3.1852695682       25.3390192255
  C         6.5854268724        3.8970442801       27.4356100024
  C         7.7393345955        3.5611069801       24.1556275683
  C         8.2440875970        5.5899326752       23.0698153949
  H         6.4201325079        7.4252249352       24.9795943938
  H         5.9144810314        6.7752426392       26.5015608615
  C         4.8993716643        5.8373842695       24.8371999876
  S         6.7000948459        1.6304360116       26.0818274803
  C         6.3367191149        2.5245311255       27.5573359679
  H         6.4132306870        4.6577353418       28.2044672899
  C         8.1188084105        2.9680053365       22.9975733497
  H         8.1170448284        6.6467526203       22.9546749519
  C         8.5767429438        4.8869106781       21.9685325049
  H         5.1327944032        5.7008337518       23.8288554995
  H         4.7612648888        4.7977752218       25.2403648958
  C         3.5723857207        6.5649237357       25.0435817238
  C         5.8828470345        1.8615463003       28.8328790161
  C         8.5786449611        3.5569098554       21.8524389210
  H         8.0387654535        1.9473641454       22.8480971710
  C         9.0211317114        5.1698949284       20.6673656552
  H         2.8523369336        6.0769324162       24.3718360239
  H         3.5644356921        7.5410054662       24.6464472122
  C         3.0279695742        6.7065629917       26.4141666869
  C         5.8639734149        0.4641208661       29.0408438084
  C         5.3384777225        2.6504926157       29.8914743560
  C         9.0377939593        2.7649058920       20.7089743720
  C         9.2478099697        4.0271494374       19.9513309512
  S         9.2290324773        6.6570424976       19.8250334443
  H         2.1176797762        7.3508083489       26.3513590781
  H         3.7551998847        7.1883019641       27.0176038949
  C         2.7606948436        5.3201465350       27.1157872749
  N         6.0346246839       -0.5574837808       28.0811546412
  C         5.5815660547       -0.0800690280       30.3106177332
  C         4.9197667292        2.1242829305       31.1490342792
  H         5.2518123373        3.7102889716       29.7249489543
  C         7.8521237245        1.9879957289       20.1162368016
  C        10.4164994830        2.0270200799       20.7943130878
  C         9.6324240822        4.3487195144       18.6781202077
  C         9.5819290388        5.7073429644       18.4450881147
  H         2.2597003232        4.6644108538       26.4319458660
  H         3.5266957628        4.7569940595       27.5101402117
  C         1.7212374304        5.5510071606       28.2145754144
  S         5.9996833387       -2.0124390303       28.7996387038
  N         5.5259613379       -1.4991598934       30.2924554763
  C         5.0668807867        0.6725834454       31.3965339066
  H         4.3860318417        2.7252833871       31.8499845113
  H         7.5695291530        1.1379324874       20.7501728482
  H         8.1616559270        1.6917282069       19.1486456323
  C         6.5190307543        2.8282267315       19.8247972422
  H        10.5082018138        1.4872413918       19.9275452052
  H        10.2793202534        1.2493236314       21.5809857197
  C        11.6095718599        2.8796328359       21.1488654154
  H         9.9368991413        3.5501008133       18.0516963349
  C         9.9542095965        6.3068770684       17.1166092988
  H         1.0735726211        4.6338687121       28.2847764626
  H         1.1184530849        6.4290530014       28.0284232308
  C         2.4705558471        5.5057030349       29.5528459284
  C         4.8299923551       -0.0368557482       32.6126664439
  H         6.7855919783        3.6680993260       19.2322968298
  H         6.1694188057        3.3833953748       20.7347869576
  C         5.4213788973        1.9325275894       19.2475651585
  H        11.5158252521        3.3903572475       22.0881161656
  H        11.6635010593        3.6713178393       20.4514343702
  C        12.8791573271        2.0161637299       20.9929912130
  C        10.0927406134        7.7399224595       16.9158296405
  C        10.2211941843        5.4247549158       15.9687890848
  H         2.9548237025        4.5697287704       29.8220958468
  H         3.3061008047        6.2212389485       29.6653497143
  C         1.4361944784        5.9106921084       30.6595165489
  H         4.7074242196       -1.0935680654       32.4414802992
  C         4.4776578859        0.3380335196       33.8830833030
  H         5.3051335249        0.8673273845       19.6426340325
  H         5.6558915361        1.7364682845       18.2078745313
  C         4.0550134347        2.6149612705       19.1506754724
  H        12.9077822876        1.2942489030       21.7942673701
  H        12.8498253672        1.4217008465       20.0331534050
  C        14.0565488314        2.9128290944       20.9765582938
  N         9.7977127856        8.7931821498       17.8128346965
  C        10.4237601966        8.2325442079       15.6537554312
  C        10.6105744064        5.9267179247       14.7484659751
  H        10.1431095912        4.3756898061       16.0699187957
  H         0.8486725437        6.6843570928       30.3944941784
  H         0.8386941348        5.1096463802       31.0409249269
  H         2.0510003775        6.2827553574       31.4009782523
  S         4.2632939861        1.8664549353       34.4799535743
  C         4.4599997360       -0.7479360493       34.8867044082
  H         3.9834273870        3.2488822161       19.9820615501
  H         4.0798570114        3.2738575530       18.1936787777
  C         2.9406122064        1.5764273839       19.2324346709
  H        13.8822558249        3.7397350656       20.2803238892
  H        14.9342783183        2.4014602870       20.5594969439
  C        14.4871587381        3.3780258520       22.3517391230
  S        10.0316038815       10.2388615001       17.1132749460
  N        10.5282194804        9.6635828921       15.6582247319
  C        10.7822596625        7.4395434308       14.5661001251
  H        10.9075313052        5.2218441261       14.0046810709
  C         4.0523826904        1.0934401163       36.0354556655
  N         4.0469679459       -0.2531417191       36.0280057843
  O         4.6795714322       -1.9215859326       34.6096417653
  H         2.0331832087        2.0862775815       19.1517583977
  H         2.9277900782        1.1429156609       20.2203556097
  C         3.0525312495        0.4760223235       18.1167844525
  H        15.2757211251        4.1163320602       22.2019045821
  H        13.7514061049        3.9315256102       22.8573706796
  C        14.8808169734        2.2637619268       23.2924611057
  C        11.0562141179        8.1451645848       13.3867082589
  S         3.5108446173        1.9493557691       37.5748210032
  C         4.0116571081       -1.0747528386       37.2229179680
  H         3.0842848546        0.9947627607       17.1393906972
  H         3.9343907248       -0.1425978520       18.1906428668
  C         1.9197863059       -0.5371513702       18.2311735553
  H        14.7094018653        1.2942581459       22.9062832977
  H        14.1709387326        2.3822628314       24.1518713324
  C        16.2985053925        2.2849306509       23.8902777411
  H        10.8270131610        9.2290990833       13.4671635583
  C        11.5230249517        7.7097514228       12.2123525686
  H         3.1685905492       -0.7831712452       37.8698925185
  H         3.6490182220       -2.1176091646       37.0109097774
  C         5.3464766819       -1.1390075486       37.8956403524
  H         0.8722639026       -0.0505422596       18.2500416185
  H         1.9890233667       -1.1258809053       19.1996013505
  C         1.9652503511       -1.6517149602       17.1407185983
  H        16.4764415576        3.2961249425       24.3912466441
  H        16.3993824026        1.4990927410       24.6613455859
  C        17.3428321220        2.1050310895       22.7893676113
  S        11.8897862045        6.1503865891       11.7448455525
  C        11.7083197528        8.7870790415       11.1569143165
  H         5.6734640490       -2.1289972813       38.2795793394
  H         6.0294770132       -0.7830798278       37.1895682133
  H         5.2957892381       -0.3908584061       38.7531268333
  H         1.2005781423       -1.3512876388       16.4548327221
  H         1.6684031179       -2.5455785780       17.6882567229
  H         2.9658143659       -1.9378989803       16.7883064402
  H        18.3836489977        1.9205360553       23.1903172187
  H        17.4921642615        3.0718736563       22.3704968433
  H        17.1421096746        1.2571806876       22.0808677315
  C        12.2366993816        6.8342809757       10.1624058258
  N        12.0945181057        8.1682538668       10.0277438621
  O        11.5703672464       10.0032505596       11.2772553520
  S        12.7681583172        5.9035995788        8.8436222191
  C        12.2247158254        8.9164001664        8.7357785092
  H        12.2770855144        9.9821397051        8.9622171889
  H        13.1768458815        8.7557609960        8.2152869489
  C        11.0695658340        8.6024342781        7.7723082015
  H        10.1709081402        8.6643636710        8.3509895130
  H        10.9093360683        9.3138309644        7.0399117190
  H        10.9634925485        7.5564347695        7.5515615604
  H        21.1638045025       10.9689278251        2.9727663881
  C        21.5383203701        9.9655127621        3.1014988139
  H        20.6796408999        9.2437445671        3.1366078077
  C        22.4225640779        9.9352101548        4.3305973148
  C        22.3596055884        9.7406086017        1.7780425253
  C        21.5631654760       10.4514680559        5.5106800052
  H        22.8049419159        8.9915148658        4.4775129694
  H        23.2426790193       10.6710565914        4.2144328470
  H        22.7589013329        8.7081291830        1.8117589551
  H        23.0843118685       10.5098787834        1.5227895799
  H        21.6066105692        9.8215877216        0.9940314230
  C        20.7044227968        9.2898057749        6.2141334942
  H        22.2155783051       10.8768336041        6.1962697096
  H        20.8742404862       11.2276424647        5.1553605803
  C        19.8923012930        9.6905797877        7.5142478751
  H        21.3876406700        8.4904646053        6.5412183420
  H        20.0467338207        8.7888962144        5.5435697825
  C        18.8136889231       10.6186586691        7.2804690385
  H        20.6112644698       10.1009694117        8.2051261453
  H        19.4504241320        8.8253031536        8.0347461804
  C        17.5732161135        9.8687745427        6.8003231778
  H        18.5862803439       11.0399901118        8.1741946845
  H        19.0127199984       11.4878485899        6.6332270671
  C        16.2804665272       10.7123154455        6.6841016713
  H        17.4605380593        9.1823569932        7.6001086600
  H        17.7233925562        9.2277749736        5.8729464362
  C        16.5935134562       12.0239815296        6.0044255465
  C        15.9513387410       11.3963620372        7.9555138034
  C        15.1426334149        9.9391999823        6.0126436823
  C        16.3547830447       13.1312557732        6.7732541752
  C        17.0966790048       12.3691337377        4.7533860392
  C        15.9933047485       12.7496631609        8.0956543000
  C        15.6111977535       10.6495407432        9.1212260261
  H        15.5783110880        9.3864239822        5.1766974829
  H        14.8574169420        9.0709158430        6.6398814728
  C        13.8593314884       10.6913775159        5.7794632118
  S        16.8212571335       14.5891776585        6.0032627954
  C        17.3776029158       13.7167122947        4.5963066993
  H        17.1738673943       11.6049848473        3.9749561069
  C        15.7115449155       13.3604137063        9.2401021650
  H        15.5548535061        9.5923346366        9.0653123444
  C        15.2943336559       11.3209345836       10.2926599665
  H        13.9406825210       11.7546560102        5.4049066232
  H        13.3919775043       10.7991361196        6.7614637143
  C        12.8682015992        9.9078926718        4.7763421600
  C        17.9665878010       14.4065198940        3.4241263462
  C        15.3406926972       12.6564152831       10.3752113237
  H        15.6275548477       14.4347581399        9.3411814780
  C        14.9767759112       10.9442355963       11.5786723142
  H        11.8337181147       10.3330168461        4.9750722552
  H        12.7293383081        8.8328635445        4.8850858223
  C        13.1850600965       10.2577565522        3.2645357904
  C        18.0435482859       15.8238229713        3.2024944748
  C        18.3972085928       13.5776667673        2.2187924325
  C        15.1064788105       13.4030119356       11.6540020443
  C        14.9091455586       12.0688441859       12.4093246727
  S        14.6975009342        9.5370397893       12.4602331146
  H        14.2927385161       10.1179524652        3.1367743859
  H        12.8513877335       11.2805442042        3.1122858096
  C        12.4421129844        9.2267879184        2.3868849976
  N        17.8111717878       16.8262345551        4.1011312515
  C        18.4202633615       16.3033357531        1.9689785313
  C        18.8223491534       14.0550872114        1.0024800128
  H        18.1956084943       12.5770551531        2.3175142535
  C        13.7054918202       14.1103708974       11.5718700971
  C        16.2307391786       14.3567443460       12.1257204026
  C        14.3838928867       11.7934751350       13.6668876272
  C        14.3659848007       10.4244134370       13.8385514443
  H        13.0447149569        8.3176420317        2.1583297431
  H        11.4848241586        9.0182649606        2.8327172712
  C        11.9710616780        9.6294926877        1.0394086646
  S        17.8471989315       18.2518098619        3.3791459477
  N        18.4227811236       17.6772606206        1.9455987425
  C        18.7720867770       15.5179555066        0.8313106019
  H        19.0367585560       13.3053202539        0.2605016034
  H        13.9067105612       14.8440528370       10.7706459131
  H        13.6793371096       14.6555793181       12.5195945501
  C        12.3719638580       13.1632267550       11.4451958692
  H        16.4861194126       15.0893948749       11.3438982576
  H        15.8042331044       15.0421079775       12.8789487445
  C        17.4856411295       13.6581202554       12.6110272013
  H        14.2627405201       12.7101584752       14.2542140517
  C        14.0857108446        9.6658422635       15.0761115708
  H        11.0737443074       10.3319966910        1.1704284922
  H        11.6661952973        8.6731320940        0.6939154489
  C        13.1320285840        9.9965295704        0.1891056072
  C        18.9254237783       16.2259031797       -0.3891629589
  H        12.4448216161       12.3176542411       10.7383007792
  H        12.3136075435       12.8980034048       12.5102576096
  C        11.1318005349       13.9256916833       10.9860344292
  H        17.8941609949       13.0200712474       11.7767679154
  H        17.2840947287       12.9596558875       13.4163851376
  C        18.6166202124       14.5925022131       12.9767815474
  C        14.0777239959        8.2465259469       15.2725008648
  C        13.6630760562       10.4863901569       16.2121181570
  H        13.7753301742       10.8271400990        0.5157752626
  H        13.9098086452        9.2341484796        0.2359689348
  C        12.6203911597       10.3666210863       -1.1711272882
  H        18.7732641374       17.2889803408       -0.4179968734
  C        19.1943450845       15.8003126377       -1.6716395310
  H        11.2427194903       14.0167413705        9.9071909052
  H        10.9961380310       14.9159524243       11.5038007580
  C         9.9040010896       13.1321550870       11.3003878837
  H        19.0417203081       15.0175451967       12.0700793690
  H        18.0524645742       15.3805178875       13.4920089688
  C        19.6985103146       13.9086433164       13.8649437652
  N        14.4976648262        7.2377295197       14.2810597943
  C        13.7751576813        7.6867424493       16.4931368700
  C        13.4613935102        9.9451224690       17.4084897380
  H        13.3907001926       11.5296076141       16.0910073527
  H        13.2804286120       11.1823179244       -1.4826900379
  H        11.6238126257       10.7175529887       -1.2148968233
  H        12.7678219569        9.4469328828       -1.8288739323
  S        19.6224477272       14.2011868295       -2.1773569479
  C        19.2383027432       16.8858205534       -2.7264411833
  H         9.9366241876       12.1742074025       10.7534879047
  H         9.7326530369       12.9554419463       12.3187951296
  C         8.6557191586       13.7811540864       10.7567785448
  H        20.3679699421       13.3242746397       13.2365473027
  H        19.2509309625       13.4014870659       14.7073905123
  C        20.4911479645       15.0137015371       14.5639911258
  S        14.4320525299        5.7512591789       15.0192935963
  N        13.9314616358        6.2406898356       16.4992942966
  C        13.4106184886        8.4520925823       17.6320238754
  H        13.0590122342       10.6135430100       18.2318045253
  C        19.7692249915       14.9539159549       -3.7657709606
  N        19.6376741833       16.3018645071       -3.8476653759
  O        18.9296546805       18.0867066931       -2.6616930991
  H         7.9269336755       13.9260750412       11.5125175708
  H         8.8457763292       14.8165489969       10.4210882165
  C         7.9668135781       12.9758727116        9.6829515634
  H        19.8703946150       15.6961472114       15.2026667191
  H        21.0080247936       14.4511387078       15.2936005124
  C        21.3565187175       15.8978088325       13.6151954457
  C        13.2045418589        7.7925286660       18.8796578737
  S        20.2220215908       14.0598990974       -5.1735186817
  C        19.6743903782       17.0737874176       -5.0959787289
  H         8.7010758601       12.5112789112        9.0163060736
  H         7.3950079861       12.1690266892       10.1422642146
  C         7.0508952097       13.7970221071        8.9347091021
  H        20.7525731846       16.6456498609       13.0919030579
  H        21.7311214003       15.1038390322       12.9105692115
  C        22.4371383003       16.6156156458       14.4394441316
  H        13.6062297354        6.8132245208       18.8927710507
  C        12.5583794582        8.2050211276       20.0144860506
  H        20.4569504491       16.6652697371       -5.6989081414
  H        19.7001793054       18.1532696509       -5.0188115959
  C        18.2893960593       16.7356949084       -5.6804054467
  H         6.4389409100       13.0938186087        8.3955681812
  H         7.4928253814       14.4179637223        8.2382459653
  C         6.0212471294       14.3946658869        9.8752271344
  H        23.0773774148       15.9473160615       14.9571671827
  H        23.0445848622       17.0453894148       13.6070028452
  C        22.0097701050       17.8238468482       15.2773187930
  S        11.9186467919        9.7952715643       20.4090830562
  C        12.3550738407        7.2133705125       21.1301987196
  H        17.4507684836       16.9846548530       -5.0476264831
  H        18.1319510235       15.6398173348       -5.8101566546
  H        18.0633616405       17.2140805666       -6.5638880410
  H         5.6788684715       13.7645526087       10.6619664759
  H         6.4172575884       15.2514193311       10.2942369646
  H         5.2419006609       14.7829978665        9.1930809708
  H        21.0277721688       18.2896068241       14.8559952881
  H        21.8383532285       17.5707619822       16.3847429223
  H        22.7708272679       18.5436143388       15.1479780537
  C        11.3952480146        9.1028306441       21.9689562817
  N        11.7258419473        7.8530392330       22.1087827383
  O        12.8038486178        6.0523707764       21.1434923662
  S        10.8287542819        9.9899993475       23.2903362089
  C        11.4816373423        7.1898927438       23.2912967537
  H        11.3088078174        6.0969491084       23.1907600054
  H        10.5059144439        7.5727490192       23.7329097550
  C        12.5567758963        7.4725331113       24.2658236675
  H        13.3919070618        7.7385595402       23.7023382133
  H        12.7973498110        6.6326224322       24.9049086081
  H        12.1710057386        8.1174643094       25.0176904275
