352
 i =    88600, time =    88600.000, E =        25.2792867938
  H         9.6114782380        6.6819646430       31.3001022561
  C        10.6416654103        6.4551454480       31.6389495208
  H        11.2080341215        7.3632915438       31.7848220822
  C        11.3059958419        5.8538529305       30.3551125217
  C        10.5325663178        5.5281530996       32.8334459990
  C        10.4251487429        4.7680991911       29.6436703927
  H        11.5412893381        6.5846185463       29.6337644820
  H        12.2368338307        5.5005202675       30.7164440966
  H         9.7275864742        4.8021634698       32.6391414858
  H        11.5055504255        5.0553928605       33.1229406915
  H        10.2805263315        6.2060033266       33.7123763349
  C         9.3607006640        5.3111934307       28.6707389234
  H        10.0471550689        4.1218608923       30.4046895959
  H        11.1196643879        4.0447823510       29.0564144691
  C         9.9826292173        5.6763299748       27.3197585970
  H         8.4921010856        4.5067257938       28.5259603044
  H         8.9095396591        6.2079114478       29.1052014203
  C         9.2532562776        4.9701239220       26.2267384930
  H        11.1040019948        5.3838334053       27.3711062956
  H        10.0322005532        6.7836530037       27.2735696606
  C         7.8947567190        5.6988340454       26.0412290270
  H         9.8395674426        5.1065385075       25.2987274655
  H         9.1808812151        3.8442878448       26.3324905987
  C         6.9480507483        4.8475758530       25.2110406549
  H         7.3919175795        6.0152891218       26.9100003871
  H         8.0805936485        6.6931989612       25.5525596986
  C         6.6601256013        3.5494098564       25.8670576484
  C         7.5599768779        4.2226544485       24.0138262459
  C         5.6231298557        5.5639128324       24.8079747096
  C         6.9325886983        2.4427674137       25.0806094918
  C         6.0978669245        3.1576506389       27.0874277568
  C         7.5754668576        2.8879115860       23.9421012963
  C         8.1854177324        4.8748063177       22.9638017083
  H         5.0114655448        4.8376112223       24.2650651425
  H         5.8705021092        6.4625562297       24.1966387447
  C         4.8118200065        6.1605568793       25.9185708215
  S         6.5664607826        0.9484395211       25.9237068507
  C         5.9118932632        1.8540818552       27.2348739763
  H         5.7154356982        3.8977484621       27.7326659199
  C         7.9739622319        2.2451979446       22.7857363119
  H         8.2565882277        6.0000350353       22.8727785798
  C         8.5962221003        4.2328691038       21.8462385921
  H         4.8884919907        5.5222358130       26.7896607408
  H         5.2640860805        7.1448899703       26.2479222207
  C         3.3958949123        6.4553947582       25.5028141513
  C         5.4923297026        1.2462446775       28.5926945940
  C         8.4575626285        2.9162042412       21.6903300321
  H         7.9564572226        1.2296364714       22.7270555575
  C         9.0340731530        4.5901944361       20.6164921156
  H         3.0073058698        5.5566648059       24.9745709955
  H         3.3272582599        7.4207600869       24.9703441372
  C         2.4062569362        6.7405950974       26.6274005346
  C         5.4940544065       -0.1360864103       28.9098205296
  C         5.1005781014        2.1196794042       29.7552316120
  C         8.9371178741        2.1727839950       20.4418509158
  C         9.2522774907        3.5126403886       19.7763739256
  S         9.1094677518        6.1318541668       19.8280440219
  H         1.5027017381        7.2562514330       26.2130069745
  H         2.9099332291        7.3107314072       27.3170968867
  C         2.0733736327        5.4191568891       27.2725991239
  N         5.8298639089       -1.1642496426       27.9975195319
  C         5.2698572113       -0.6915634039       30.1645598407
  C         4.8818951465        1.6388262301       31.0198926741
  H         4.9640566649        3.1269730150       29.5850829369
  C         7.7876833526        1.4663687458       19.5633430533
  C        10.2744875618        1.4205013152       20.5546839776
  C         9.6227320806        3.9217922532       18.5273608029
  C         9.6289618422        5.2930752405       18.3993428007
  H         1.8039035731        4.6535222103       26.5638229449
  H         3.0252046769        5.0917261684       27.7018628563
  C         0.8582386513        5.4535830629       28.2207354001
  S         5.6750895525       -2.6492500795       28.7395202665
  N         5.4425503736       -2.1007027756       30.2292824413
  C         4.9404913150        0.1677248751       31.2753711181
  H         4.7028207505        2.4129275503       31.7895369570
  H         7.2489922684        0.8290329717       20.2811404735
  H         8.2460578387        0.8097092379       18.8010400733
  C         6.7561079340        2.3773590871       18.7961007455
  H        10.4440647700        0.9640084301       19.6095324652
  H        10.1956929981        0.4717120730       21.1077341879
  C        11.4166321516        2.2354463336       21.1514221876
  H         9.7523120683        3.1466274368       17.8244021803
  C        10.1194439699        6.1057727835       17.1046508334
  H         0.4763154209        4.4439018731       28.3730751641
  H         0.1564061238        6.0248931110       27.6707117857
  C         1.2029171458        6.0844353981       29.5683549924
  C         4.8654028011       -0.4635469616       32.5754856719
  H         7.2320201623        2.8998055615       17.9321193541
  H         6.4294182273        3.1021685500       19.5705012072
  C         5.4401859873        1.5284716206       18.5200745685
  H        11.0384628353        2.7984166973       22.0033615538
  H        11.8571912188        2.8151835306       20.3802037039
  C        12.6527383233        1.4403297433       21.6708666066
  C        10.1052152835        7.5095130280       16.9757820022
  C        10.3774215611        5.4310718570       15.8915304749
  H         1.8614981386        6.9272337348       29.3458529939
  H         0.2604070252        6.4153960724       30.0087310217
  C         1.9006158872        5.1855837098       30.4937752309
  H         4.8673170126       -1.5070390098       32.6099425688
  C         4.4759255014        0.0011629215       33.8131243725
  H         5.1632174008        0.8258604441       19.3312493190
  H         5.4427705225        0.8533863400       17.6420201642
  C         4.1855284331        2.3312495919       18.1556811492
  H        13.0984593443        1.9321425453       22.5413233422
  H        12.3270308277        0.4320305820       21.9531432822
  C        13.7703607403        1.2990131738       20.5567266529
  N         9.7824569753        8.4321815460       17.9773405491
  C        10.2879455495        8.1880008761       15.7659573867
  C        10.6926122949        6.0727862343       14.7093289296
  H        10.3592178187        4.3422166508       15.8700585208
  H         2.5194354131        5.6606570847       31.2343956538
  H         1.1556986354        4.7115131961       31.0696188822
  H         2.5977538305        4.5092879662       29.9143015976
  S         4.2389180984        1.6191732616       34.2813659127
  C         4.2520164734       -0.9624203566       34.8676757258
  H         4.3657781520        3.4768837466       18.4280397751
  H         3.9648427166        2.2845014030       17.0740317743
  C         2.9311924028        1.7926759402       18.9922789889
  H        13.8751969753        2.2224924965       19.9158895215
  H        13.3917153312        0.4970995166       19.8986312499
  C        15.1285103376        0.9523202936       21.0706345645
  S         9.6608147065        9.9107715797       17.3584526968
  N        10.2038436089        9.6233979845       15.8702722598
  C        10.6299905985        7.5393058543       14.5778910942
  H        10.7229361359        5.5204307142       13.8070029220
  C         3.9812390129        0.9949228873       35.9068233603
  N         4.0101873943       -0.3141922832       36.0236219323
  O         4.2507021574       -2.2027729784       34.8096483419
  H         2.3137092566        2.6642172766       19.1490327121
  H         3.2023638895        1.4889403634       20.0357469260
  C         2.1970950845        0.6946133962       18.2232576339
  H        15.1330482019        0.2571713543       21.9361149894
  H        15.6076306602        0.4297640396       20.3048271842
  C        15.8912616701        2.1405510123       21.4641808368
  C        10.8012380992        8.3104527698       13.3469768247
  S         3.6399363748        1.9256979407       37.3439257721
  C         3.9651744157       -1.0294745211       37.2816944461
  H         1.1760517221        0.7803322640       18.6755562981
  H         2.0957848904        0.9926546616       17.1672117892
  C         2.8068026021       -0.6758978693       18.2346266902
  H        15.3281072857        3.0510563050       21.2483639580
  H        16.8503971804        2.1340299687       20.9554868364
  C        16.3272540695        2.1751282206       22.8928828506
  H        10.5987316382        9.3784708917       13.3814171222
  C        11.5253757524        7.9282127819       12.2765001160
  H         3.1927100008       -0.5162109098       37.8598555317
  H         3.7527957072       -2.1024035153       37.3508282556
  C         5.3511806339       -0.8238279122       37.9224790380
  H         2.8327144627       -1.0665222453       19.2545511083
  H         3.8862986011       -0.8176119052       18.0290396763
  C         1.8480763943       -1.6368785535       17.5841632735
  H        16.1223511953        3.1562438527       23.3561471816
  H        15.7530331886        1.5074396654       23.5461161984
  C        17.8193272636        1.7988181500       23.0855182394
  S        12.2912980537        6.4301838127       11.8973171107
  C        11.6690686189        8.9194873170       11.1350548647
  H         5.3251806608       -1.3018678095       38.8721451687
  H         6.1045628633       -1.3740918280       37.3082312049
  H         5.7509412481        0.1994666182       37.9062436285
  H         1.1031671368       -1.8559703388       18.3438272814
  H         2.3537793887       -2.4822236467       17.1290184644
  H         1.3778146326       -1.1375574855       16.7362568349
  H        18.4705535446        2.4536834262       22.4759109377
  H        17.9049818807        0.8223686897       22.7261507298
  H        18.1420457736        1.7988567217       24.1875539514
  C        12.7020128456        7.0732813527       10.3121561631
  N        12.4270377044        8.3906219562       10.1351594417
  O        11.2527801285       10.0887416439       11.1445075615
  S        13.2507943516        6.1584796513        8.8564971702
  C        12.5376107877        9.0893334166        8.8966981817
  H        12.6759655768       10.1950455731        8.9431219394
  H        13.4820318051        8.8738842298        8.3955430974
  C        11.4327990713        8.7807813994        7.8736745657
  H        10.9549458659        9.7579666194        7.7229126403
  H        11.7805719337        8.3407575155        6.9347704848
  H        10.5973153921        8.2457081365        8.3443545977
  H        21.8353224837       10.5304125234        3.0145573311
  C        22.2951692844        9.5825041437        3.0724229679
  H        21.5802066243        8.8153316474        2.9072414064
  C        22.8661397923        9.5851207898        4.5387455566
  C        23.3659056373        9.6049485471        1.9521221908
  C        21.8203556056        9.7767088966        5.5971203902
  H        23.4862422488        8.6909949594        4.7682992369
  H        23.5771722540       10.3841076227        4.6369309277
  H        23.9964404547       10.5275249796        2.1381434277
  H        22.7767023064        9.6712024566        0.9848180882
  H        24.0654681931        8.8301501315        1.8532324879
  C        20.9365287431        8.5449702813        5.6846732433
  H        22.2793060165        9.9732653145        6.5324662248
  H        21.2991694817       10.6799526908        5.3407885700
  C        19.8251936574        8.8794260343        6.6743936724
  H        21.5972024943        7.7750788015        6.1284277032
  H        20.5205903475        8.1617253468        4.7363558752
  C        18.6837196763        9.7168315595        6.0949819101
  H        20.3502086819        9.3037790652        7.5079341240
  H        19.4771179785        7.8688309254        6.9649747463
  C        17.5555108518        9.9363761987        7.1850460844
  H        19.0039116775       10.7317565360        5.7258082673
  H        18.2148187422        9.2711581645        5.2861716258
  C        16.3157523828       10.8073634877        6.7741348125
  H        17.9675201985       10.2524374251        8.1248467899
  H        17.1680557595        8.8845153885        7.4051276461
  C        16.6082436499       12.1618754210        6.0654778286
  C        15.7981675205       11.4895208114        7.9943587968
  C        15.1311164735       10.0043009676        6.0775815889
  C        16.3729618948       13.1912137988        6.9386342392
  C        17.1506064802       12.6409953129        4.9303067828
  C        15.8586855724       12.8067050924        8.1711863375
  C        15.3486611873       10.7648534921        9.1066115817
  H        15.5836817486        9.7303691335        5.0975884624
  H        15.0359462368        9.0097057685        6.5851588325
  C        13.8191023673       10.8644230053        5.8627221396
  S        16.9439913031       14.7326820248        6.3061115320
  C        17.3934766047       13.9374933385        4.8745164802
  H        17.3126595785       11.9393089831        4.1799179538
  C        15.6811253888       13.3715860283        9.3801098510
  H        15.3424912982        9.6619898931        9.0657433343
  C        15.1137698988       11.3228111909       10.3451974015
  H        14.1631329699       11.7826653614        5.3167438161
  H        13.4036961435       11.0348924114        6.8299461312
  C        12.7495975834       10.1312032887        4.9753971885
  C        17.8184011575       14.6140767391        3.5881623547
  C        15.2970962360       12.6464630586       10.5200649280
  H        15.9750019477       14.4197009672        9.6017391690
  C        14.7925646037       10.9033314808       11.6100329090
  H        11.7477309257       10.2909483720        5.4026208576
  H        12.9008924945        9.0616669370        4.9498567595
  C        12.6677066692       10.6749007236        3.5514604372
  C        17.9295971671       16.0405768833        3.4051093208
  C        17.9817443677       13.7936862149        2.3760006470
  C        14.9845075752       13.3157680198       11.8328059935
  C        14.6919216650       11.9771622686       12.4626858949
  S        14.6250907458        9.3577214657       12.3868096879
  H        12.9209953969       11.7165649565        3.4905783282
  H        11.6492465534       10.8193780758        3.2850146521
  C        13.4543914806        9.8733241472        2.4743214233
  N        17.6080240721       17.0086126301        4.3950768389
  C        18.2763472936       16.5707639673        2.2397069905
  C        18.3694544604       14.3998563336        1.1958142391
  H        18.0355160519       12.7164338349        2.3376482447
  C        13.7315582800       14.1867855972       11.9834467774
  C        16.1428055206       13.8713111005       12.6408702151
  C        14.4294117529       11.5263551663       13.7603172497
  C        14.3390909707       10.1703510124       13.9408598822
  H        14.5993547724        9.8999478845        2.6437114109
  H        13.0369434292        8.8457623520        2.5075967603
  C        13.4127060908       10.3706588545        1.0130685995
  S        17.6919301643       18.4712749475        3.7197300188
  N        18.2269528918       17.9504074064        2.2613239163
  C        18.6813391195       15.8032692430        1.0528869421
  H        18.5548940769       13.7767732407        0.3494674850
  H        13.9927511875       15.1709205424       11.6678584538
  H        13.4711365763       14.3638479413       13.0261581921
  C        12.4797617744       13.8317347922       11.2452439601
  H        16.3914966437       14.8516186257       12.1340405400
  H        15.7542949441       14.0334539795       13.6502715632
  C        17.4913952423       13.1282581153       12.8136113890
  H        14.3035600928       12.3157807910       14.5521922619
  C        14.0379535426        9.4693762032       15.2149689689
  H        14.3169030399       10.1035866770        0.4309439949
  H        13.5655517934       11.4557192294        1.0741962123
  C        12.2531564857        9.8196544285        0.1220552639
  C        19.0093525120       16.4762734149       -0.1697456193
  H        12.7517721534       13.7577515838       10.1899087363
  H        12.3318449496       12.7671246985       11.5180032115
  C        11.2412240124       14.7089672961       11.4298832690
  H        17.8875783503       12.8556862422       11.8746171956
  H        17.3703798107       12.1096457722       13.3167169168
  C        18.4039069192       13.8998941746       13.7129077197
  C        14.0467140240        8.0450488526       15.2900276522
  C        13.7418511748       10.1892654124       16.4997208766
  H        12.2509942670        8.7447728806        0.1643663013
  H        11.2241581901       10.1085191540        0.4266970705
  C        12.3357985843       10.2197250034       -1.3922670369
  H        18.9470294178       17.5667445826       -0.0987978651
  C        19.3248642312       16.0005666013       -1.4704341381
  H        11.5430091651       15.7187079267       11.2354295619
  H        10.9395517408       14.7753769097       12.5024114540
  C         9.9912674464       14.4499703984       10.5864542860
  H        18.3121413183       14.9138566611       13.3804828222
  H        17.9366365099       13.8106415264       14.6834351843
  C        19.8697839270       13.3903485841       13.7621763910
  N        14.4278863350        7.2087663975       14.2232882109
  C        13.6980898375        7.3386443791       16.4348415259
  C        13.4905701990        9.4756431963       17.6356226494
  H        13.8039765248       11.2581601733       16.6362613233
  H        11.6649206779        9.5495904987       -1.9110420407
  H        13.3472116781       10.0801069355       -1.8159082600
  H        11.8762955822       11.2028648827       -1.5404630972
  S        19.4151397770       14.3402850034       -1.9995840358
  C        19.4794408457       16.9335897318       -2.5933812439
  H         9.1584627094       14.7890092609       11.1301722221
  H        10.0058946155       14.9248060945        9.6630559549
  C         9.8997980615       12.8957216587       10.2610372434
  H        20.1768892657       13.5725649275       12.7831519687
  H        19.9003243490       12.3165547885       13.9523611436
  C        20.7639694941       14.1291962309       14.8109952597
  S        14.1610872732        5.7068314600       14.7535773013
  N        13.7284937938        5.9632562101       16.2806249529
  C        13.4476177678        7.9698528531       17.6511355789
  H        13.2925609279        9.9855386499       18.5743725646
  C        19.9622776664       14.9327839332       -3.4700173086
  N        19.8583997400       16.2727736126       -3.7090920227
  O        19.4572806938       18.1466120869       -2.4182946266
  H        10.7916672319       12.5733963087        9.7320371704
  H         9.9251590589       12.4334474924       11.2276559389
  C         8.7740047660       12.3595557635        9.4028981754
  H        20.0181134553       14.1990828438       15.6753934600
  H        21.4765392738       13.4296736890       15.1950526172
  C        21.4771030630       15.4511723270       14.3513057048
  C        13.0956271745        7.2266714992       18.7998765374
  S        20.0984147506       13.8371013796       -4.8374051612
  C        19.8541321145       16.9485508313       -5.0026349670
  H         8.9950781987       12.7660333486        8.4296829910
  H         9.0558960240       11.3329362495        9.2785716498
  C         7.4387787932       12.6810300535        9.9338470635
  H        21.3453408814       15.5858446454       13.2672788339
  H        22.5614860208       15.2940284094       14.4534178075
  C        21.0959135338       16.6603064007       15.0839289027
  H        13.0031764223        6.1306815841       18.7021383940
  C        12.6268480950        7.5242988107       20.0253364881
  H        20.4925638508       16.2566912930       -5.6137252829
  H        20.2860784009       17.9941320685       -5.0310744935
  C        18.4371984052       16.9637112327       -5.5775812267
  H         7.6579871870       12.8851576797       11.0215405318
  H         6.8677569623       11.7965145698        9.9755963978
  C         6.6959779732       13.7395318559        9.1599257131
  H        20.1814447948       17.0433301288       14.7640123053
  H        21.0674830072       16.4932708557       16.1469459014
  C        22.1879344268       17.7094174757       14.9208669043
  S        12.2995897017        9.0820628511       20.6508355253
  C        12.5286723138        6.4445032960       21.0549580563
  H        17.7559937614       17.3911821055       -4.8384817345
  H        18.1791547881       15.9457726102       -5.8075138597
  H        18.2547480663       17.6369540257       -6.4173712052
  H         6.0620877047       14.2890531956        9.7807927655
  H         7.3589905285       14.4128507312        8.6558895404
  H         6.0457886178       13.1565494833        8.4438712559
  H        22.5323807193       17.8357081231       13.9674175546
  H        21.8715776500       18.7148700410       15.1760393735
  H        23.1707121863       17.4774627855       15.3777263961
  C        11.8788291217        8.2751589731       22.1603352240
  N        11.9505006926        6.9788690772       22.2054843180
  O        12.9480122877        5.3045130675       20.9068425852
  S        11.4723310070        9.1217992031       23.5577999495
  C        11.6716462659        6.1079691716       23.3446656915
  H        11.2781704337        5.2183840200       22.9618137131
  H        10.8921672507        6.4450679659       24.0635018612
  C        12.9636653092        5.8385649931       24.0513029660
  H        13.5357905719        5.1815676323       23.4167215190
  H        12.8033897093        5.2148229582       24.9019103316
  H        13.5004311810        6.8064344041       24.1814143318
