352
 i =    88900, time =    88900.000, E =        24.9764200883
  H        10.1385773434        7.1110247414       31.5639372596
  C        11.1403197673        6.7175541357       31.7710951916
  H        11.5789011286        7.7272572711       31.8674188294
  C        11.7880364382        6.0750822675       30.5276322266
  C        11.0131635616        5.8280681953       33.0320836614
  C        10.9394922896        5.1338112684       29.6718213760
  H        12.1627356957        6.8838797841       29.8835127376
  H        12.7280065233        5.6687134157       30.8562998249
  H        10.3716957923        4.9990551305       33.0428520794
  H        12.0327465594        5.5478729194       33.4629575966
  H        10.6324851259        6.4939412788       33.7918088470
  C        10.3163068225        5.8951481670       28.4785362930
  H        10.1902794924        4.8328975793       30.3642893785
  H        11.4376281379        4.2775115589       29.4159697626
  C        10.6555034090        5.2710557191       27.0810947659
  H         9.2169196648        5.9931597190       28.5248160842
  H        10.6247842856        6.8943990356       28.4157122552
  C         9.3802295795        4.6494391647       26.4960313610
  H        11.3394278784        4.3584470108       27.1545373934
  H        11.0943487283        6.0233990956       26.3796847838
  C         8.3148703231        5.6713455497       25.9678578409
  H         9.6194890204        3.9034964969       25.7018279668
  H         8.9277009149        4.1252886440       27.3621464986
  C         7.0880101742        5.0241764675       25.2306530226
  H         7.8179446944        6.1657286492       26.8007102435
  H         8.7113964790        6.4072256614       25.2981795023
  C         6.7370624794        3.6669219544       25.8855903310
  C         7.5343523221        4.3253623590       23.9572384764
  C         5.8267302660        5.9257829392       24.8456740719
  C         6.9288635843        2.5684747399       25.0889511521
  C         6.2971074170        3.4018855590       27.1832235661
  C         7.4045269288        2.9856524134       23.8644993453
  C         7.9198292299        5.0084678526       22.8229717438
  H         5.2771193829        5.3098336071       24.0350157546
  H         6.1696603700        6.8595034615       24.4367384003
  C         4.7499913550        6.2391144252       25.8501148724
  S         6.4448121873        1.1292864894       25.8487486835
  C         6.0434067387        2.0560352124       27.3288250728
  H         6.3407932257        4.2375312092       27.8770879383
  C         7.8337616376        2.3680968783       22.7065828985
  H         7.9465695832        6.1278606852       22.8925067125
  C         8.2780659472        4.4600504138       21.6855381321
  H         5.0922887354        5.8068859452       26.8103235411
  H         4.7041548913        7.2826904907       26.1960503449
  C         3.3411266569        5.8392020792       25.5068382954
  C         5.6730488860        1.3766358308       28.6621460969
  C         8.3002470502        3.1088726064       21.6098190531
  H         7.6189152616        1.3275142262       22.7836384907
  C         8.8201642529        4.7941779554       20.5051118829
  H         3.4227183586        4.8116028214       25.2433154854
  H         2.9063031635        6.4655659981       24.6578107166
  C         2.4179597764        5.9499914161       26.6608483463
  C         5.7199828178       -0.0546644450       28.9243975112
  C         5.0851775624        2.2588846201       29.7108667934
  C         8.7739237996        2.3215394638       20.4325626246
  C         9.0610856983        3.6522737462       19.7156241626
  S         9.2335215005        6.2501929634       19.7955794588
  H         1.4495008577        6.4892226881       26.3665598405
  H         2.7935916780        6.6466905181       27.4542353772
  C         2.1346171311        4.6235461606       27.3758994847
  N         5.9701868117       -1.0400773536       27.9710851261
  C         5.4173545465       -0.6039724970       30.1502035035
  C         4.8807431270        1.6968984966       31.0038979680
  H         4.9321995026        3.3637864901       29.6199861537
  C         7.6843255024        1.4722765918       19.7320194483
  C        10.0558982417        1.5223177130       20.8413705879
  C         9.4714725142        4.0410156903       18.4087277158
  C         9.5405803181        5.4099430458       18.3005059739
  H         1.8685271213        3.8161135385       26.6796490448
  H         3.0120820730        4.1510752659       27.9040313625
  C         0.8788455427        4.8064314377       28.2717699937
  S         5.7884733307       -2.5411476238       28.6502563906
  N         5.4594262171       -2.0492389563       30.0966801410
  C         4.9960427977        0.1675658138       31.2608742475
  H         4.6088500572        2.3328762976       31.8564685605
  H         7.3635003606        0.7097276597       20.3727543395
  H         8.0834753749        0.9667775651       18.9219851121
  C         6.4965438455        2.3275854430       19.3033053934
  H        10.3182657570        0.7343055252       20.0899441863
  H         9.8291237361        0.9483309967       21.7455472055
  C        11.2551295612        2.4371385397       20.9893718826
  H         9.7631051712        3.2763505974       17.7855627723
  C         9.7721369379        6.1585944718       17.0122592253
  H         0.5976518341        3.8429580489       28.6237813012
  H         0.1190072733        5.3958054838       27.7428133830
  C         1.2053032754        5.5231713875       29.6246549207
  C         4.7876018369       -0.5237378408       32.4496358099
  H         6.7562327399        2.9517307163       18.4417273312
  H         6.3950987610        3.1323973106       20.0515594835
  C         5.2067405983        1.4921878214       19.0969966991
  H        10.9311486814        3.1804536533       21.7071462101
  H        11.5081370937        2.9076003017       20.0110718900
  C        12.4506795367        1.7571616429       21.6642274886
  C        10.0681230392        7.5007418647       16.8787605638
  C        10.0514154779        5.3771898648       15.8192011485
  H         1.5432428050        6.5404538731       29.3981002927
  H         0.3010276535        5.6576082883       30.1858739307
  C         2.1804618772        4.8022799861       30.5373166287
  H         4.7716833540       -1.6506476057       32.3842461095
  C         4.4713788526       -0.0417163894       33.7219366357
  H         4.9188264043        1.0011404296       20.0163822359
  H         5.3765390287        0.7371188413       18.3373145239
  C         4.0730843262        2.4198027970       18.7928264044
  H        12.8384521303        2.3656644031       22.4896510876
  H        12.2947241314        0.8801567886       22.2737845123
  C        13.5881062263        1.4982909735       20.7739600647
  N         9.8046950645        8.5244887691       17.8526363720
  C        10.4999839587        8.0940473133       15.7220402524
  C        10.4430337096        5.9920791424       14.5885296901
  H         9.8610306397        4.3167580662       15.8558706477
  H         3.0754514511        5.3652025905       30.8636709638
  H         1.6760600055        4.4015044267       31.4390522585
  H         2.6498306212        3.9717475481       30.0441895106
  S         4.2613254346        1.6009376002       34.1866540459
  C         4.3301142216       -1.0094573755       34.8576439905
  H         4.1306773386        3.0981981525       19.6334551345
  H         4.1601803235        2.9942135531       17.9762460131
  C         2.6918326850        1.6753664221       18.6359869870
  H        13.8503262725        2.2845557339       20.0695381626
  H        13.4024658039        0.5460236560       20.1558740022
  C        14.7809667434        1.1478308696       21.6193731134
  S         9.9870163040        9.9681323186       17.1994710095
  N        10.5023661650        9.4800289684       15.7615455295
  C        10.7080189457        7.3929920088       14.5590448097
  H        10.5895005732        5.3253884361       13.8013318258
  C         4.0296909256        0.9543284228       35.9059779563
  N         4.0819509236       -0.3713456421       36.0303864309
  O         4.6776488798       -2.1958618844       34.7391615146
  H         1.9088633570        2.4432482916       18.5976439527
  H         2.4710595083        1.0622068898       19.4717208364
  C         2.8210337085        0.8085595778       17.3598251074
  H        14.5466440445        0.7624773068       22.5677115931
  H        15.4633596637        0.4497541955       21.1469014264
  C        15.5132711748        2.4094271034       21.9753864843
  C        11.0373068660        8.0542164098       13.3630781622
  S         3.3914802371        1.9466684900       37.2514095310
  C         4.0705576810       -1.0269928979       37.3672767512
  H         1.8515062360        0.7742764093       16.7382045860
  H         3.6561199019        1.1336356077       16.7022116684
  C         3.1440520008       -0.7195658218       17.5714243222
  H        14.8945067742        3.3364828327       21.8628964017
  H        16.1952847274        2.7158862885       21.1680873709
  C        16.2455374131        2.4196058271       23.3375189353
  H        10.8076045190        9.0957129830       13.4109983266
  C        11.5612581683        7.6956318160       12.1602923860
  H         3.2969447815       -0.6611321546       38.0268100929
  H         3.7822103921       -2.0719574815       37.0813655911
  C         5.5769797284       -1.0697594073       37.8531628142
  H         3.2017702399       -0.8706201460       18.6314490673
  H         4.1127012504       -1.0714175659       17.1255152818
  C         1.8724231208       -1.5524770950       17.1659652520
  H        16.5581753567        3.4357026547       23.5178671863
  H        15.5381509890        2.1623389371       24.1621111553
  C        17.4647267621        1.4705258953       23.2010930702
  S        11.9710683559        6.1263036890       11.5985389649
  C        11.5906940618        8.7881467914       11.0992766185
  H         5.6730917354       -1.8170853464       38.6644234588
  H         6.4283059768       -1.4397852475       37.2328120673
  H         5.9235239599       -0.0785951814       38.1479121984
  H         1.0732456627       -1.3555990369       17.8950574913
  H         2.2749146328       -2.5605922918       17.2282118851
  H         1.5819160939       -1.5049510293       16.0829336097
  H        18.2899332559        1.8984417878       22.6231893194
  H        17.1862766082        0.5758333238       22.5994534362
  H        17.8045196430        1.1189804302       24.1666406541
  C        12.0821863120        6.8569535967        9.9876694805
  N        11.9353509089        8.2231347272        9.9274392205
  O        11.2688716784        9.9364765380       11.3614444523
  S        12.6807951405        6.0722195072        8.5400192215
  C        11.9883497455        8.9965872155        8.6981990892
  H        11.9801422252       10.0649603669        9.0987103227
  H        12.9860584159        8.8839297792        8.1185756621
  C        10.7427713736        8.8349412556        7.9324310059
  H        10.2774054277        9.8025553251        7.6551865679
  H        11.0004522118        8.1836121363        7.1539940990
  H        10.0112751316        8.3737520035        8.5882784845
  H        21.5290275498       10.5038022315        3.1226284250
  C        22.1861479460        9.6663856331        3.1418405067
  H        21.5668123611        8.7371614519        2.9889244266
  C        22.9667605197        9.5173223176        4.4656527958
  C        23.1207037530        9.8513049009        1.9621265013
  C        21.9928298884        9.7199225856        5.6405972992
  H        23.5410942784        8.6150782101        4.5767658821
  H        23.6557906888       10.3604817796        4.5097901662
  H        23.9534803680       10.5594675008        2.1551665937
  H        22.5752957847       10.1466860633        1.1161989181
  H        23.5447376238        8.9876359963        1.5178011707
  C        21.2365855950        8.3705326633        6.0516917190
  H        22.6013834287       10.0547849000        6.4374806667
  H        21.3132152805       10.5415508519        5.5423909313
  C        20.0510970799        8.7231333745        7.0342537870
  H        21.8990107442        7.7664965085        6.6458159615
  H        20.8680930375        7.8146177650        5.1606888421
  C        18.7251893109        9.0844930673        6.3988426498
  H        20.4930431584        9.5941386142        7.5798218265
  H        20.0380852377        7.9629725769        7.8422554517
  C        17.6370522253        9.4880605740        7.4637323586
  H        18.9507023693        9.9113469487        5.8404970483
  H        18.2329715742        8.2389481190        5.7855855689
  C        16.5728372290       10.4771193059        6.9195763705
  H        18.1834060560       10.0281143893        8.3636293439
  H        17.1088967719        8.6086523025        7.7747809548
  C        16.9744179829       11.8061965218        6.2560236014
  C        16.1050505252       11.2317900028        8.0876290030
  C        15.2701391148        9.8811016672        6.2814481838
  C        16.7003751703       12.9325688515        6.9625261481
  C        17.5231709099       12.1676305022        5.0064086337
  C        16.1658344602       12.5823362987        8.1640504761
  C        15.6549408224       10.5280643930        9.2246762080
  H        15.4176583854        9.2937410980        5.3745331342
  H        14.8893766037        9.0523057529        6.9021237670
  C        14.1196320127       10.8650108941        5.9442927513
  S        17.0751817945       14.4424796753        6.1503300887
  C        17.5797457699       13.5262796912        4.8364960619
  H        17.8618059965       11.3404784325        4.3575441098
  C        15.7034416226       13.1809117739        9.2895872075
  H        15.6033587697        9.4244439712        9.1512293177
  C        15.0892984876       11.1629006694       10.3110579582
  H        14.6306450067       11.5741483971        5.3042828307
  H        13.6724206225       11.3135901728        6.8786164122
  C        12.9895283564       10.1876588396        5.1254520892
  C        18.0664854187       14.1582152560        3.5120230270
  C        15.0727032338       12.4786009110       10.3211785547
  H        15.5788223389       14.2342468438        9.3835692048
  C        14.6766474058       10.7876398095       11.5207919260
  H        11.9792452476       10.2824490083        5.5556543529
  H        13.1289132622        9.1209840275        5.0737087500
  C        12.8367522975       10.5737898443        3.6552478813
  C        18.0393166657       15.5535370533        3.1916816064
  C        18.7265634981       13.3559750735        2.5203285906
  C        14.5834303373       13.2454639762       11.4967542276
  C        14.3543619844       11.9152667299       12.2511959721
  S        14.6431507659        9.2558197775       12.3569369677
  H        13.0383548661       11.6399489745        3.4800908811
  H        11.8086481124       10.4484997495        3.3996146414
  C        13.6697360885        9.5757284025        2.7585510933
  N        17.5386542352       16.4924102966        4.1247471911
  C        18.4042994597       16.1023239540        1.9844520932
  C        18.8869170633       13.9372634162        1.1968626856
  H        18.8421279587       12.3476741063        2.5836880762
  C        13.3152465545       14.1355379154       11.3675219136
  C        15.6724189112       14.0724001861       12.1744068173
  C        14.0605036032       11.4995338291       13.5639594544
  C        14.1007671822       10.0953930844       13.7435006999
  H        14.7191830713        9.5505208296        3.1117938750
  H        13.0875700753        8.6378372287        2.7439392732
  C        13.7712150093       10.1332641124        1.3274468522
  S        17.6815886147       17.9781678223        3.3909448801
  N        18.2614445164       17.4585221673        1.9876220321
  C        18.7625340508       15.3469570063        0.8597421241
  H        19.1572362932       13.2091752648        0.4497311779
  H        13.4792442391       14.9340916673       10.6361403107
  H        13.1107349509       14.5938274828       12.3766150058
  C        12.0781839099       13.3640354466       10.8910146574
  H        15.9601437251       14.9811302154       11.5640780389
  H        15.4917412932       14.2735216082       13.2601416856
  C        17.0421748356       13.3174986030       12.1764936494
  H        13.8209046779       12.3212514440       14.2677329181
  C        13.8215858112        9.2676822253       14.9516970416
  H        14.7643226410        9.8531738767        0.8711095671
  H        13.7573711905       11.2142277180        1.2637319811
  C        12.7647535055        9.5150108244        0.2621061181
  C        18.9713862840       16.0533074554       -0.3098865614
  H        12.3772447408       13.0721411092        9.9013407512
  H        11.8158477510       12.5532325418       11.5466004143
  C        10.9271860862       14.3848411217       10.7513578694
  H        17.4919842377       13.4002015738       11.2265110667
  H        16.9372958717       12.2525372247       12.3110537813
  C        17.9397252339       13.8330094697       13.2592288957
  C        13.8497979095        7.8764220247       15.1210989325
  C        13.5949847352        9.9577224237       16.2751443099
  H        12.8807551247        8.4082453341        0.2004838789
  H        11.6898654144        9.7749306982        0.4139726043
  C        13.1008870475       10.0731403334       -1.1831782499
  H        18.8658849484       17.1202754850       -0.2878232772
  C        19.3409203793       15.6197229062       -1.6001209233
  H        11.3794412328       15.3552728932       10.6378621482
  H        10.4149592169       14.4449327059       11.6736360987
  C         9.8590410703       14.0585302670        9.6875705900
  H        17.7171631514       14.8714127184       13.4190268284
  H        17.5913781716       13.3271411344       14.1918190340
  C        19.3634075826       13.6373443471       12.8942654412
  N        14.1943718645        6.9986096774       14.1021308709
  C        13.5622968253        7.1774056146       16.2613300480
  C        13.3208128681        9.2545791808       17.4085511241
  H        13.6460951742       11.0125669171       16.2606461953
  H        12.4008261746        9.7011382558       -1.9163797231
  H        14.0843784557        9.7548695137       -1.4662463114
  H        12.9597624597       11.1718502704       -1.2816269214
  S        19.6830282217       13.9781920752       -2.0065246897
  C        19.4275981257       16.5925284773       -2.7287401818
  H         8.9243283700       14.5803028995        9.9493748357
  H        10.1835427061       14.4796696018        8.7409461704
  C         9.7252573744       12.5765002894        9.5490412322
  H        19.6053235901       14.4341472696       12.2022307775
  H        19.4865459846       12.7245050359       12.3584090698
  C        20.2953515407       13.6127756258       14.0358616320
  S        14.0267835886        5.4581041970       14.5781554860
  N        13.6201478023        5.8136884077       16.0912292064
  C        13.3397072427        7.7764117175       17.4556599317
  H        13.0964776425        9.8631621880       18.2832221453
  C        20.0329369135       14.6277657544       -3.6578166491
  N        19.7928798073       15.9653909354       -3.8338439581
  O        19.1673320015       17.7672654241       -2.6250672791
  H        10.6229951928       12.1386364731        9.0660820870
  H         9.6745035024       12.0577718833       10.4918606979
  C         8.4703807822       12.2314838483        8.7708746259
  H        19.6542737766       13.7568539762       14.9155315440
  H        20.6541685225       12.5860524638       14.0271720045
  C        21.3733197011       14.6395794780       14.0537856798
  C        13.1386085319        7.0333504742       18.5800840564
  S        20.3184384216       13.7411151721       -5.1956785820
  C        19.7332660035       16.6603424176       -5.1434657017
  H         8.2901764097       12.9348370904        8.0334338418
  H         8.4672077757       11.2779784163        8.4324685238
  C         7.3156315247       12.3286083996        9.7234017969
  H        21.8918370321       14.7427585060       13.1719074828
  H        22.1092116213       14.3025826824       14.7524946189
  C        20.8384526176       16.0272177096       14.4653354941
  H        13.5278224830        6.0986351367       18.5042651051
  C        12.5342936646        7.2871861078       19.8504915284
  H        20.4572403477       16.2792234247       -5.8634253182
  H        20.1721970733       17.5339305978       -4.8147837493
  C        18.3261779695       16.7756532576       -5.6777775309
  H         7.5615116257       12.7078491116       10.7680355919
  H         6.6896232004       11.3916614642        9.7926503926
  C         6.2147096828       13.2450139316        9.1064381304
  H        20.0363985393       16.3649006189       13.7390838367
  H        20.4659981526       15.8488943245       15.5431691087
  C        22.0088357980       17.0961943311       14.4019500539
  S        11.8897099263        8.8452056565       20.3622147094
  C        12.5229261581        6.2038617430       20.8386866104
  H        18.3909151926       16.5322491224       -6.7119089587
  H        17.9673623796       17.8250759029       -5.6949934989
  H        17.6848280471       16.0448851920       -5.2460878370
  H         5.2530369989       12.8437261532        9.1695707632
  H         6.3380686344       14.3059791526        9.4643428792
  H         6.2561708619       13.3192287823        8.0336658168
  H        22.2116051573       17.6637980834       13.4966989848
  H        21.7906075679       17.9017467083       15.1183530605
  H        23.0075330003       16.5752583054       14.5087535601
  C        11.6275678288        7.9854115068       21.8841916230
  N        11.9105494717        6.6598694456       21.9604074367
  O        13.0248666418        5.1485203135       20.6941559441
  S        10.9985873299        8.8786260837       23.3130722275
  C        11.8085659461        5.8142790587       23.1900154163
  H        11.4524833504        4.8420835502       22.8426437707
  H        11.0212189894        6.1813172876       23.8216680336
  C        13.2160185578        5.7886646366       23.8314838277
  H        13.2769798969        5.1379555767       24.7090107218
  H        13.4366222182        6.7451636757       24.2625439238
  H        14.0349866252        5.5535811697       23.1109924468
