352
 i =     4600, time =     4600.000, E =        33.3555732291
  H        12.1808401113        5.2187250466       32.5472139365
  C        11.1576966372        5.4444783733       32.5856820740
  H        10.3417903580        4.6882194628       32.3058756886
  C        11.0450625169        6.5591816271       31.5416219458
  C        10.8571716499        5.8942647676       34.0416324487
  C        11.3566504608        6.1099802939       30.1238529882
  H         9.9945183668        6.9031098863       31.5802221564
  H        11.6428426199        7.4471667943       31.9095517218
  H        11.4742220004        6.7532079564       34.3127046145
  H         9.8478436736        6.1719330792       34.3130225183
  H        11.1554071520        5.0569714666       34.6625833321
  C        10.1475720328        5.5063796472       29.3093450991
  H        12.2463577193        5.4372621733       30.0604703909
  H        11.8232310116        6.9037341268       29.5672937996
  C        10.3211546935        5.4884138795       27.7462785816
  H         9.8191323628        4.5936545333       29.6997028377
  H         9.3188309759        6.2414449001       29.4885111371
  C         9.3443670674        4.7217520247       26.8671733583
  H        11.3192311914        5.0271036823       27.5342054533
  H        10.2607236525        6.5538846655       27.4680969127
  C         8.1975105574        5.5185772494       26.3464570720
  H         9.9899960737        4.2449393519       26.0672070140
  H         8.8402099764        4.1030603506       27.5387899443
  C         7.1361518482        4.9244488820       25.5197356102
  H         7.6872477877        5.9717522989       27.2673074080
  H         8.6933827021        6.4190327361       25.7794436493
  C         6.7186434416        3.5509115949       26.1287076414
  C         7.6218212554        4.2121393956       24.2972065491
  C         5.8958615675        5.9076255941       25.2067139320
  C         6.9982564994        2.4656927306       25.3342937793
  C         6.1396846157        3.1999001798       27.2887247736
  C         7.5156884799        2.8595238640       24.1375883454
  C         7.9380762621        4.9199796098       23.0963042298
  H         6.1828151789        6.6650787708       24.5578732141
  H         5.5579613283        6.2119344447       26.2032263148
  C         4.7158703280        5.1946027731       24.4598892050
  S         6.5336604783        0.9657876986       26.0839701088
  C         5.9832428056        1.8614427054       27.4530373289
  H         5.9618814517        3.9127038025       28.0537725030
  C         7.8673495496        2.2463491114       22.9896750028
  H         7.7628921980        5.9207022346       23.1895684020
  C         8.3388443181        4.3003544975       21.9284648039
  H         4.9052895261        5.1770416013       23.3948805626
  H         4.5445626999        4.1897556853       24.8066996039
  C         3.3061509783        5.9130879596       24.5589100758
  C         5.6148395778        1.2451653158       28.7607611877
  C         8.3011569532        2.9180752524       21.8268378574
  H         7.8857975312        1.1807364509       22.9343702119
  C         8.6739998989        4.7045880519       20.6549911072
  H         2.4663530685        5.3692740710       24.0505429631
  H         3.3460962799        6.8885252543       23.9754457048
  C         2.7824083690        6.3612035506       25.7940686038
  C         5.5211345129       -0.1798992957       29.0287478701
  C         5.2812156206        2.0962654868       29.9526044567
  C         8.7765966530        2.2522664136       20.6106129603
  C         8.9633353985        3.6127573141       19.8730938527
  S         8.9734540123        6.1580285167       19.8464072331
  H         1.9026272291        6.9320965443       25.5789655408
  H         3.5358070485        6.9094184946       26.4198165372
  C         2.2979744048        5.1556222495       26.5186070826
  N         5.8842827475       -1.1231242431       28.0551671830
  C         5.3379859331       -0.7687514086       30.2102825624
  C         4.9187750503        1.4839430603       31.1508570802
  H         5.2655269617        3.1521156694       29.8860617741
  C         7.7668960809        1.2350812521       20.0504561710
  C        10.2017005350        1.6334003124       20.9276460972
  C         9.4681896906        4.0131513464       18.5898886377
  C         9.3375678212        5.3676997066       18.4049820935
  H         1.6454177608        4.5412492284       25.9174059427
  H         3.1447581172        4.4606963996       26.6528438606
  C         1.6148166055        5.2697737391       27.8885367106
  S         5.8144918259       -2.6536936895       28.6194971142
  N         5.4496300239       -2.1633591908       30.1355437475
  C         5.0499148592       -0.0066466477       31.3780825346
  H         4.5192014226        2.0491157302       31.9034625917
  H         7.5991756250        0.2659396910       20.5621485801
  H         8.1720910724        0.9121220863       19.0671822030
  C         6.3705374499        1.7402199934       19.6944122318
  H        10.6089673418        1.2993822067       19.9608088508
  H        10.2656508210        0.7801381190       21.6219928306
  C        11.2316261492        2.5883533371       21.5004423754
  H         9.6307528763        3.2067747927       17.8475079788
  C         9.6425592179        6.1917136945       17.1755014089
  H         0.9272227513        4.4646505525       28.0970788033
  H         0.9802151397        6.2037508793       27.9761900782
  C         2.6451885255        5.3481968399       29.0202497993
  C         4.7890594410       -0.6690067296       32.6113136658
  H         6.1901512526        2.5203374625       20.3702581464
  H         5.7141367236        0.8712859745       19.8805071333
  C         6.2694019698        2.2600233027       18.1978945126
  H        10.8274318093        3.0439719643       22.4234254081
  H        11.3578614663        3.4358985864       20.8274257195
  C        12.6580546078        1.9250546537       21.5875556847
  C         9.8196108330        7.5888985738       17.0476756230
  C         9.9729489972        5.4078123780       15.8973315050
  H         3.3455582289        4.4942205215       29.0970122036
  H         3.2474295517        6.1921965332       28.8032986302
  C         1.9127202146        5.3862788105       30.3439917563
  H         4.7532841726       -1.7189018153       32.5588850987
  C         4.5088704810       -0.2456053478       33.9454571290
  H         6.3715190345        1.4884809911       17.4251009941
  H         7.1298460962        2.8117445564       17.8626656396
  C         4.9675257185        2.9189396353       17.8368307847
  H        12.6737537829        1.2785185327       22.4138247448
  H        12.9599882613        1.4714726202       20.6923070485
  C        13.7591330463        2.9927502944       21.8796771018
  N         9.5355820411        8.5306470727       18.0533514132
  C        10.1577165607        8.2718368215       15.8870704157
  C        10.2713766065        6.0489797366       14.7195963367
  H         9.6106386275        4.3327904192       15.9128688143
  H         2.4594610904        4.8693067043       31.0805275953
  H         1.4574936203        6.4362529607       30.5037244807
  H         0.9373936193        4.8948736553       30.1494467883
  S         4.2878795888        1.2901078234       34.5389087459
  C         4.4005147793       -1.3426382582       34.9649362794
  H         4.8383976408        3.9275737910       18.2334341302
  H         4.9166502355        3.1083452551       16.7588931235
  C         3.7690563808        2.0841255746       18.2765239850
  H        13.3240591148        3.3676692207       22.8237785382
  H        13.9429354282        3.7541571803       21.2090867857
  C        15.0670901390        2.1961913838       21.9756293799
  S         9.8334136292       10.0518336858       17.4688719622
  N        10.3959782340        9.6404283441       15.9776112339
  C        10.3996102154        7.5702268580       14.6840420488
  H        10.3435251995        5.4926278384       13.7524881188
  C         4.0837669920        0.5568427768       36.1204158020
  N         4.1396500771       -0.7875419896       36.1155594736
  O         4.7281464259       -2.5160055930       34.7786652503
  H         2.9299170884        2.6741919077       18.1136423553
  H         3.7396045046        1.8395432340       19.3261961245
  C         3.4175909474        0.8144032093       17.5827468997
  H        14.6580578514        1.1050556183       22.2116156676
  H        15.6911756942        2.2521211973       21.0311242189
  C        15.9083388322        2.8735774166       22.9628986670
  C        10.9108981446        8.2070379002       13.5400629966
  S         3.4985555622        1.4119431934       37.4976951000
  C         4.2710985084       -1.5725339129       37.2954282986
  H         2.7821107843        0.9844336241       16.6464332995
  H         4.4046352346        0.3716775884       17.1865275299
  C         2.7335800269       -0.2299614135       18.4673742198
  H        15.2982885038        2.9272095674       23.8228863939
  H        16.1078515394        3.8796738276       22.7155289738
  C        17.1619756305        2.0715482077       23.3785612933
  H        10.8182615338        9.2692723429       13.5990363811
  C        11.6436466963        7.7789453495       12.4465904885
  H         3.5579125264       -1.1283177738       38.0131660495
  H         3.9165980372       -2.6116643685       37.2079240674
  C         5.7617252408       -1.5353567822       37.8359485364
  H         1.8853262408        0.2179482721       18.8883045275
  H         3.4088546750       -0.2926178191       19.2793537439
  C         2.5035207716       -1.5484952769       17.8125358075
  H        17.4308615724        2.2510539853       24.3756079275
  H        16.9166669170        1.0391167938       23.2753382026
  C        18.3303731457        2.3547562487       22.3864214870
  S        12.3035185101        6.2628198441       12.1383102835
  C        11.8954910771        8.8074467170       11.3552597625
  H         6.0753015681       -0.5808836680       38.0697383470
  H         5.8613956577       -2.1127983863       38.7541912097
  H         6.4140230253       -1.8785306047       37.0212486790
  H         2.2807517073       -2.2321182493       18.6240611969
  H         3.4043069089       -1.9660015699       17.3157096655
  H         1.7060869316       -1.7058009453       17.0537668777
  H        18.7563868332        3.3520919171       22.4143413097
  H        17.9417905658        2.4495472443       21.3707851069
  H        18.9635688322        1.5137179943       22.3976470363
  C        12.7587949842        6.9352653954       10.4954340457
  N        12.4433258291        8.1963949242       10.2877169276
  O        11.3007799246        9.8965331543       11.3945175711
  S        13.3157260757        5.9385598671        9.1982786926
  C        12.7242720560        8.8566966586        8.9876525418
  H        13.0694164146        9.8543879098        9.2489467044
  H        13.5760251690        8.3985236787        8.5358798907
  C        11.4498699525        9.0463547870        8.1196155670
  H        10.4453799511        8.9165573692        8.6997588196
  H        11.3508267774       10.0848488663        7.6992747867
  H        11.4363237661        8.4214715867        7.2492952292
  H        21.6975296475       11.4988435872        3.1891969742
  C        22.0702949140       10.4939763757        3.4343153964
  H        21.2272730310        9.7635889151        3.4984075598
  C        22.7679392649       10.4324084755        4.8102617803
  C        22.8746454266       10.1240913820        2.1564282276
  C        21.9019621572       10.6673184340        5.9998542234
  H        23.2114199351        9.4102614488        4.9783755410
  H        23.6480792752       11.0272571908        5.0423397289
  H        23.1214526976        9.0943156378        1.9430733708
  H        23.8617539141       10.5462419586        2.3347718722
  H        22.4435083805       10.5216230880        1.3258841238
  C        21.3011549594        9.3465379014        6.5761510118
  H        22.6088786046       11.0806492056        6.7448293559
  H        21.1893344778       11.4521764994        5.8375955864
  C        20.6010045797        9.6264538535        7.8959707196
  H        22.0582441090        8.5597131360        6.8020822057
  H        20.5599939664        8.8806694385        5.9500219170
  C        19.2535475808       10.4691306720        7.8658494698
  H        21.3591101087       10.1434483629        8.4134621381
  H        20.4119174785        8.6461223981        8.4477995141
  C        18.0332837406        9.7119880942        7.5027114240
  H        19.1609439043       10.7339924452        8.9104392047
  H        19.4274372398       11.4115419963        7.3392194532
  C        16.7113431042       10.6144274111        7.2408745648
  H        17.8084153474        8.8887562691        8.1920215686
  H        18.2603420763        9.2027663574        6.5180581178
  C        16.9868407835       11.9734492730        6.5628227164
  C        16.2665439247       11.3484352704        8.4346265310
  C        15.5379284730        9.9554380166        6.5438508485
  C        16.8515069702       13.0782451731        7.3749812220
  C        17.4765233732       12.3289244019        5.2550086432
  C        16.3558493952       12.7056287062        8.5573164479
  C        15.6643074036       10.8015566125        9.5373102749
  H        15.8584316847        9.6455818638        5.5129878563
  H        15.3781364611        8.9632582771        7.0300140210
  C        14.1864822174       10.7729171028        6.4418616432
  S        17.2550308822       14.5625935704        6.5577698204
  C        17.6537599226       13.6725905393        5.0692068025
  H        17.7737137072       11.6299060641        4.4152343813
  C        15.9296497869       13.3297467206        9.6794711300
  H        15.6279313689        9.7591645814        9.6182048084
  C        15.2393130385       11.3988694158       10.7149772657
  H        14.2923821180       11.8384131894        6.1568707272
  H        13.6290264003       10.7940711863        7.4059641598
  C        13.2603896403       10.1425931478        5.3591611335
  C        18.1390293743       14.3791021120        3.7557213494
  C        15.3294945431       12.7152211702       10.8167413376
  H        15.9872068683       14.3892725516        9.7196483678
  C        14.8300666948       11.0614974495       11.9803860085
  H        12.3289183747       10.6649176639        5.4590863834
  H        13.0282424752        9.1307387692        5.5963974126
  C        13.7570158747       10.2904839074        3.8635823027
  C        18.1721362895       15.7420786211        3.5292877964
  C        18.4358297872       13.4863758312        2.5810982796
  C        14.7698770202       13.5412903267       12.0058943947
  C        14.4675089194       12.2147049713       12.7203578124
  S        14.5915233071        9.6308034498       12.8389263886
  H        14.7134190213        9.6536537519        3.7227351973
  H        14.2406740598       11.2389832955        3.5381455837
  C        12.7816477608        9.8053173072        2.7525974281
  N        17.9368270194       16.7100778631        4.4327079856
  C        18.4279202868       16.1993289634        2.3268213684
  C        18.8480003639       14.0656246759        1.3500156616
  H        18.4082725878       12.4261457625        2.6409131525
  C        13.4766940929       14.2892707328       11.7298154746
  C        15.9282356785       14.4301432444       12.6905426890
  C        13.9785704270       11.8400897930       13.9676416372
  C        13.9484784330       10.4995219362       14.1722360713
  H        12.6909951475        8.7578910142        2.9151887060
  H        11.8400089456       10.3231566188        3.0982199780
  C        13.0898711518       10.1811789376        1.3673005090
  S        17.9260696507       18.1268558200        3.7159044713
  N        18.4719878452       17.5652619419        2.2928498587
  C        18.7013249967       15.4724821695        1.1495204670
  H        19.0417858882       13.3460034120        0.5869035410
  H        13.8450313914       14.9512539631       11.0001808626
  H        13.1181002320       14.7803789227       12.6454180930
  C        12.3544369455       13.4126151026       11.0162131021
  H        16.3081069107       15.1361375921       11.9145514401
  H        15.6713271753       14.9126040987       13.6310571608
  C        17.0923806144       13.4913554829       13.1236736988
  H        13.6853341969       12.6792403076       14.6110308335
  C        13.6354496832        9.7837804118       15.4355926557
  H        13.7418484861        9.3729085191        1.0067211405
  H        13.5189881430       11.2254601267        1.2921532304
  C        11.9345193439       10.2913618880        0.3996014926
  C        18.8003267951       16.1422149547       -0.0798523267
  H        12.8764355161       12.7550704738       10.3086766781
  H        12.0035840121       12.7147332528       11.8263773358
  C        11.1028976886       14.1713214001       10.5168946234
  H        17.4625313427       13.0146930231       12.1768093433
  H        16.7749181067       12.6120278979       13.7717327082
  C        18.2595984696       14.3220217097       13.8536527024
  C        13.6866121650        8.4071102792       15.7044799568
  C        13.5203731195       10.5407825226       16.7170076602
  H        11.6375841159        9.3109316012        0.1340395573
  H        11.0900437743       10.9240978025        0.7576474130
  C        12.3145253626       10.9173191560       -0.9500347967
  H        18.8661717118       17.1872252770       -0.0918654233
  C        19.2001779403       15.6240973564       -1.3095884357
  H        11.4134612523       15.0260164437       10.0185938826
  H        10.6923929460       14.5289194774       11.4940953790
  C        10.0102904326       13.3185124747        9.8801711609
  H        18.7491705202       15.0077515659       13.1423275780
  H        17.8577679808       14.8094310096       14.7141388152
  C        19.3246700722       13.4160485832       14.2975697153
  N        13.9410623283        7.4571026204       14.7512344186
  C        13.2666883895        7.8389259881       16.9026661280
  C        13.2685296058        9.9921994876       17.9610681241
  H        13.4956185816       11.6205868260       16.6130406748
  H        13.2527104872       11.4819116951       -0.7654824349
  H        11.6646956025       11.5433249233       -1.5008653816
  H        12.6247578027       10.0705884221       -1.5550115686
  S        19.4677491136       14.0377634684       -1.7856149083
  C        19.2856424206       16.5872235461       -2.4808442300
  H        10.3914643998       12.7984177726        8.9448967684
  H         9.7312628339       12.5303009828       10.5897236354
  C         8.6956595565       14.0285835115        9.6247024473
  H        19.4244672859       12.6285787789       13.6489661943
  H        19.1682668000       13.0689155036       15.3695034672
  C        20.6866958846       14.1215758394       14.3586035051
  S        13.7541063312        5.9737679807       15.3918773086
  N        13.1144764288        6.4188358751       16.8144380322
  C        13.1436977386        8.5551939152       18.1029282006
  H        12.9618131333       10.6192286682       18.7612540309
  C        19.8715132390       14.6129238202       -3.4027329136
  N        19.6911548277       15.9309778045       -3.6077355325
  O        19.1060234823       17.7520659603       -2.3629792685
  H         8.1710690998       14.3302130717       10.5333424186
  H         8.9384033526       14.8948598500        8.9751406305
  C         7.7589842472       13.2991757922        8.7543200947
  H        21.6033644787       13.4349583822       14.4925898772
  H        20.8248102271       14.4778862577       13.3564902194
  C        20.7905517579       15.3296016466       15.2784678690
  C        12.7487454886        7.8215002355       19.2525294497
  S        20.3605320386       13.5485597121       -4.6962264440
  C        19.7820748252       16.6241935137       -4.9153666503
  H         8.2374697536       13.1407462310        7.8197802260
  H         7.6129940344       12.3529088455        9.3006058586
  C         6.5403855544       14.0766714386        8.5044449451
  H        20.8126040625       14.8941946427       16.2881802951
  H        19.8575995547       15.9568067987       15.0932057157
  C        21.7893032482       16.3969961144       14.9194673047
  H        12.7194573901        6.8046112599       19.1583636501
  C        12.1216401168        8.2181463017       20.3758647332
  H        20.5452434194       16.1806414453       -5.5926644215
  H        20.1976163172       17.6099792198       -4.7076347476
  C        18.3875549353       16.6705786653       -5.6084190240
  H         6.0183652983       13.5388798983        7.6633626627
  H         6.8285470918       15.0071144367        8.0599534181
  C         5.4905543050       14.1189950182        9.6597999885
  H        21.9145446914       16.9980496589       15.7772680080
  H        22.6940021915       15.9684910770       14.5690359997
  C        21.3566696914       17.3427505699       13.7448720245
  S        11.5358139640        9.7431801632       20.7867064313
  C        11.8455810393        7.0916546055       21.3220570555
  H        18.3512601980       17.6762912838       -5.8739613582
  H        17.5637841858       16.3425504713       -4.9781544855
  H        18.3855770007       16.1100703461       -6.5275686506
  H         6.0473663061       14.6256977753       10.4750205396
  H         4.6016768777       14.6705146737        9.4634010552
  H         5.1730752960       13.0484261210        9.8516955960
  H        20.6803028928       18.1414621813       14.0455867859
  H        22.2343368244       17.7339496747       13.2066609566
  H        20.8714846081       16.7947471047       12.9050251322
  C        10.7853133040        8.8530671368       22.2069378165
  N        11.1708488690        7.5716776304       22.3904229523
  O        12.2099099005        5.9182174703       21.0993539806
  S         9.9162278985        9.6891068222       23.4265649818
  C        10.7992021923        6.6528130218       23.4803497267
  H        10.6969732095        5.6880945212       23.0237354119
  H         9.9029926223        6.9744835000       23.9557754840
  C        11.8499831008        6.4634390093       24.5678791006
  H        11.5948950311        6.9304331846       25.5246172449
  H        12.8155962151        6.7859463948       24.2611412218
  H        11.9682873015        5.3991637824       24.6707172680
