352
 i =    55500, time =    55500.000, E =        25.0683578121
  H        10.7745504201        4.4814061751       31.7008159218
  C        10.3982320400        5.4811834986       31.9012281215
  H         9.4247806351        5.4882497170       31.4731490599
  C        11.1553372559        6.5043404355       31.0092550451
  C        10.4035530181        5.8150132131       33.4183879841
  C        11.5232000832        5.9281452327       29.6501828653
  H        10.5373341392        7.3985159753       30.7830931276
  H        12.0146769777        6.8300741470       31.6189674703
  H         9.7189220148        6.6533546813       33.5546415704
  H        10.4036735180        4.9447171743       34.1128507242
  H        11.2795230066        6.3802624652       33.5285964096
  C        10.3357430684        5.4924985957       28.7559480455
  H        12.2437808234        5.0499321219       29.8352902824
  H        12.0074412980        6.7802803345       29.1491455523
  C        10.8364709820        5.4656418970       27.2889189695
  H         9.9693538016        4.5476268149       29.0610510034
  H         9.5341145340        6.2045954766       28.9477075386
  C         9.7589274802        4.8457305062       26.4126335477
  H        11.7012256143        4.8628194938       27.2995422623
  H        11.2287763763        6.4414334873       27.0067575805
  C         8.4767087652        5.7168938330       26.2849261441
  H        10.2469106168        4.6995367587       25.4369823079
  H         9.5388738857        3.9065633875       26.7602949051
  C         7.3646281835        4.9379804223       25.4872284793
  H         8.0731047705        5.9781458959       27.3050316955
  H         8.7373658747        6.5896454450       25.7038162595
  C         7.0473835949        3.5890149775       26.1871717028
  C         7.7692088703        4.2526650604       24.2334425773
  C         6.0339516854        5.7207333710       25.4303498858
  C         7.3396224779        2.5351277790       25.3583718006
  C         6.4665209804        3.2759497403       27.4153496381
  C         7.6799820982        2.9080965994       24.0832841857
  C         8.2834082061        4.9291807289       23.1081224423
  H         6.3990160033        6.5228322533       24.8090086276
  H         5.7723834913        6.0247058412       26.4024870042
  C         4.8201467584        5.0157677853       24.9620419324
  S         6.8080905415        1.0491936913       26.0933316746
  C         6.3808106957        1.8916166995       27.5498430587
  H         6.1285895466        4.1786037683       27.9735512367
  C         8.1160468181        2.3028353492       22.9840239340
  H         8.2952449735        6.0052935063       23.2912348447
  C         8.6261912390        4.3315774107       21.9331514592
  H         4.9877556258        4.6072725137       23.9499197725
  H         4.6076841699        4.1050672901       25.4441753609
  C         3.5782655604        5.8488361421       24.9217489754
  C         5.8064370415        1.1080759993       28.7072748945
  C         8.5939639518        2.9818363365       21.8061462343
  H         8.1459155702        1.1523597372       23.0215371316
  C         9.0954106909        4.7737833912       20.6994999851
  H         2.8089732007        5.4834465397       24.2502526192
  H         3.9351610846        6.7679207445       24.5980400570
  C         2.9786944222        6.0224918092       26.2974415532
  C         5.6319644560       -0.2857651138       28.9024976195
  C         5.4936063103        1.9128942038       29.9156107543
  C         9.1321777997        2.2537748990       20.5314474939
  C         9.4632873794        3.6638895862       19.9487232856
  S         9.3923040643        6.2437426511       19.8654046717
  H         2.2555166721        6.8055318133       26.1405529892
  H         3.6875368083        6.4046358599       27.0120635668
  C         2.1943954172        4.7975339718       26.7486508131
  N         5.9285051956       -1.3133034629       27.9512038896
  C         5.5290793292       -0.8353792844       30.1716376299
  C         5.1632188535        1.4008197310       31.1531590923
  H         5.4930273229        2.9735368011       29.7131057188
  C         7.9756142688        1.6197332618       19.6656528291
  C        10.4196224087        1.2948935896       20.6783204056
  C         9.8512409394        3.9925642829       18.6681912527
  C         9.9831930415        5.3102125284       18.4974650197
  H         1.4454294275        4.5971223356       25.9168291638
  H         2.7298006028        3.8587389426       26.7227687039
  C         1.5097641599        5.0359025701       28.0868425934
  S         6.0780954374       -2.7581608306       28.6930657765
  N         5.7068751681       -2.2813476676       30.2221070235
  C         5.2963621060       -0.1007955937       31.3498823365
  H         4.8805108807        2.0416846133       31.9255344859
  H         7.8305138377        0.6811332848       20.0626214139
  H         8.3238274373        1.4647171562       18.6429083539
  C         6.6068602925        2.3731008360       19.6112432139
  H        10.6234856655        0.9151721694       19.6700410942
  H        10.1524695296        0.4011617640       21.2962981446
  C        11.6614870254        2.0422291652       21.1402077963
  H         9.8598789584        3.2299750574       17.9095707463
  C        10.3815583740        5.9705351391       17.2178197765
  H         1.1056952919        4.0899281256       28.5148405923
  H         0.6371410247        5.6417971196       27.8768161634
  C         2.4762420599        5.4715783260       29.1455066922
  C         5.0585090851       -0.8386365689       32.6098947009
  H         6.7635920087        3.4718621864       19.4837738326
  H         6.0710125428        2.2075848721       20.5416600488
  C         5.7622386957        1.7462896166       18.3726883423
  H        11.4868585730        2.3749449650       22.1601841161
  H        11.7654333443        2.9522000197       20.5633261770
  C        12.8118232023        1.0641053005       21.0524909596
  C        10.3167973124        7.3630221588       16.9324531607
  C        10.8425794939        5.1072467868       16.0403750097
  H         3.4467001231        4.9542876783       29.1063654612
  H         2.6914438266        6.5476964243       28.9828170434
  C         1.7859579442        5.5792728323       30.5223822887
  H         5.2942751122       -1.9150641912       32.7699847180
  C         4.7315458516       -0.3081577575       33.8578017227
  H         5.7288959937        0.6261096563       18.5539822952
  H         6.1082783297        1.9452813616       17.3791977155
  C         4.3524577109        2.2437626419       18.2438819143
  H        12.7605758405        0.1576241803       21.6412819384
  H        12.8302443403        0.6472125323       20.0760370865
  C        14.1880629552        1.6778275054       21.3585875238
  N         9.9272919549        8.2830764124       17.8655605006
  C        10.6736406878        7.8964876091       15.7261291446
  C        11.1464722468        5.6641518062       14.7545650590
  H        10.8160663964        4.0569031422       16.1026341995
  H         1.5437661316        4.5708695173       30.8161932382
  H         2.3626111105        5.9878639321       31.3407961530
  H         0.8754871125        6.2017509817       30.5844899020
  S         4.3171372485        1.3842333689       34.2561237626
  C         4.6006195188       -1.2873906604       34.9396632242
  H         4.3520375111        3.0452152464       18.9025240007
  H         4.0195220971        2.5974352706       17.2757326588
  C         3.2950996152        1.2759985061       18.6249215409
  H        14.1512168094        2.6149341492       20.8937935386
  H        14.9305443659        1.1147423656       20.7918273059
  C        14.4548378945        1.8896586495       22.8759607337
  S        10.0682696964        9.7578572808       17.1658925905
  N        10.6108715053        9.2863063817       15.6911640464
  C        11.0595694745        7.1214683599       14.5665281768
  H        11.2600446917        4.9541476306       13.9885692306
  C         4.1117373502        0.7353207394       35.8581975567
  N         4.3061070050       -0.6320344415       36.0352785172
  O         4.9475215506       -2.4614292689       34.9457408444
  H         2.4241503378        1.7920302468       18.9846483913
  H         3.5463391417        0.6530981013       19.4407890390
  C         2.7896517441        0.2716891055       17.5596609286
  H        13.5873785080        2.2078038601       23.4268917804
  H        14.5540296499        0.9066885694       23.3125451155
  C        15.7906095805        2.6590346599       23.1197822565
  C        11.2260655333        7.8438170859       13.3703948277
  S         3.9808429317        1.6782416892       37.3659468684
  C         4.4709240162       -1.3058638902       37.3745337921
  H         2.0441422170        0.6657141536       16.8930922279
  H         3.6929531327        0.1637575872       16.8798021617
  C         2.3447741966       -1.0898530151       18.2166042975
  H        15.6943092836        3.1587010435       24.0807741486
  H        15.9511992627        3.4210702717       22.4398092677
  C        16.9947888672        1.7064226433       23.2639290383
  H        10.9058462542        8.8983216691       13.3879763360
  C        11.7563615715        7.5688755924       12.1566652827
  H         3.8601086492       -0.8148362237       38.1388003383
  H         4.0503742180       -2.2781795196       37.3434011095
  C         5.9614571848       -1.2571706159       37.7613576175
  H         1.4994174446       -0.8848390636       18.8787362143
  H         3.1662445928       -1.3610744770       18.9464776927
  C         2.0158198879       -2.1272575145       17.1370355002
  H        17.1400660621        1.2669563470       24.2758313368
  H        16.8542868895        0.9568581649       22.5159009505
  C        18.3370560447        2.2887403298       22.9613921958
  S        12.5251683527        6.1170920237       11.6994253383
  C        11.9212306156        8.6661577722       11.1398990474
  H         6.1888361906       -1.6129391856       38.7583474373
  H         6.6814848801       -1.7494864945       37.0808860022
  H         6.3651702882       -0.3240123987       37.7373315549
  H         2.8475282274       -2.6002128279       16.6107040455
  H         1.3118521370       -1.6846077463       16.3758208847
  H         1.4881907111       -2.9537157060       17.6419445341
  H        18.3251688366        3.1661522771       22.3641928170
  H        18.9144883277        1.5773640020       22.3338793995
  H        18.7496810074        2.6573755486       23.8371243484
  C        12.7565158446        6.8525309586       10.1014748124
  N        12.4617435340        8.1605771868       10.0279023922
  O        11.5830441836        9.8262830405       11.2454944258
  S        13.2709638484        6.1642703476        8.5379870365
  C        12.5910538730        9.0619712854        8.8832516302
  H        12.9474315592       10.0063226457        9.1729046452
  H        13.2503469552        8.6631903105        8.1813426840
  C        11.2126547311        9.1476659804        8.1906441416
  H        10.2844797531        8.9389494314        8.7680947373
  H        11.1078151972       10.1527692757        7.8244024283
  H        11.3124421116        8.4838117502        7.3885127123
  H        22.0224132601        8.6668754571        3.7396629973
  C        22.2096603446        9.6763408692        3.5510839644
  H        22.8472942564        9.7197493967        2.6943184342
  C        22.9662684354       10.2896866101        4.7540383323
  C        20.9470025118       10.3938468432        2.9595278811
  C        22.1124598838       10.5559546064        6.0115711796
  H        23.7939355210        9.6296472413        4.9825345920
  H        23.4050449663       11.1956138772        4.4288148712
  H        21.0745982566       11.4955590368        3.0958368032
  H        19.9997162389       10.1831570476        3.5136579421
  H        20.7423873790       10.2127589397        1.8870383949
  C        21.2753170993        9.2446064623        6.3258054110
  H        22.8233907084       10.7824559350        6.8307960728
  H        21.4254078523       11.3898039213        5.9607976642
  C        20.6399321794        9.2951265231        7.6496281713
  H        21.9321725082        8.3025962448        6.1577309403
  H        20.5170653646        9.0462686962        5.6006676950
  C        19.3851729060       10.1262260904        7.7368978137
  H        21.3012286178        9.6029627077        8.4153574816
  H        20.3190600350        8.2858795008        7.9400169346
  C        18.1106704351        9.4411513102        7.3049194087
  H        19.1933237817       10.3490202353        8.8212707985
  H        19.4498510640       11.1395594900        7.3104117268
  C        16.8746457772       10.4951050670        7.2113706324
  H        17.7440311273        8.6754454036        8.0227828443
  H        18.3714105078        9.0254322047        6.2898975552
  C        17.1806309473       11.8267175283        6.4810302895
  C        16.5165304562       11.1783576316        8.5142006065
  C        15.6390724746        9.8298255387        6.5866230634
  C        16.9560247439       12.9015703897        7.3830037715
  C        17.5053222472       12.2795732862        5.2513885486
  C        16.4380465122       12.5041949878        8.6427349212
  C        16.0548047403       10.4602203653        9.6354398004
  H        16.0248061360        9.3209745395        5.7917840062
  H        15.3043096662        9.0518781130        7.1976008951
  C        14.4864425729       10.8820953550        6.2292093045
  S        17.3689092263       14.4697764821        6.5897439127
  C        17.7772696638       13.6231259979        5.1518224251
  H        17.6831012588       11.5024130268        4.4904628346
  C        16.0102499491       13.1268219619        9.7906876095
  H        16.1379566658        9.3526388711        9.6550321267
  C        15.7125859012       11.1105148380       10.8059529945
  H        14.7372322498       11.7488889984        5.6272754736
  H        14.0275743715       11.1869264332        7.1525229260
  C        13.4686468899       10.1448827825        5.3679895015
  C        18.2573937542       14.2972067022        3.8846547527
  C        15.6326310265       12.4210538679       10.9323285788
  H        15.9249353344       14.1452799135        9.8416214567
  C        15.2954900213       10.6844330986       12.0507917059
  H        12.7119115611       10.9572156100        5.2435604057
  H        12.9410676076        9.3202939770        5.8428649687
  C        13.9568182356        9.8621129542        3.9578945959
  C        18.2405921904       15.6661676727        3.6781450571
  C        18.5957750769       13.4034367629        2.7380827108
  C        15.2046708375       13.1778896552       12.1472697558
  C        14.9875432942       11.7795272421       12.8785160177
  S        14.8776069271        9.1316048292       12.8094344391
  H        14.5957206549        9.0331491621        3.9327828870
  H        14.4815370407       10.7415076008        3.6420252337
  C        12.7746244082        9.5385399056        3.0649118182
  N        17.7710444474       16.6562980979        4.5316610845
  C        18.5002299189       16.1363820623        2.4204384588
  C        18.7459800580       13.8826811115        1.4150842784
  H        18.7368806121       12.3156613172        2.8811802783
  C        13.9041865173       13.9344626143       11.8837157359
  C        16.3209766751       13.9725746564       12.8177082797
  C        14.4942092787       11.3110547459       14.1319222377
  C        14.4429519448        9.9559010350       14.2179632978
  H        11.9187838661        9.0518433208        3.5734909123
  H        12.4271323076       10.5868982102        2.8128942554
  C        13.0389667753        8.7625737202        1.6990564530
  S        17.7918396786       18.0763084034        3.7752427850
  N        18.3924947807       17.5482748343        2.3148391771
  C        18.6995686073       15.3690754714        1.2255466875
  H        18.8368301738       13.1389281784        0.6370514957
  H        14.0193171642       14.5285718897       11.0022964871
  H        13.7268124521       14.6573392267       12.6748135499
  C        12.6496943815       12.9869538474       11.5717773319
  H        16.6603848988       14.7354851720       12.0767638826
  H        15.9759590082       14.5143361010       13.6447178561
  C        17.4586928437       13.1232787617       13.4273345721
  H        14.2677707597       12.0745580973       14.8728614263
  C        14.1125641746        9.1312044310       15.5087605134
  H        12.2188058586        8.0987770238        1.4412364305
  H        13.8824169481        8.1943545662        1.9259108968
  C        13.2955936638        9.7359220704        0.4924534024
  C        18.9302369935       16.0652993980       -0.0376516941
  H        12.7288412843       12.3164889632       10.7664664777
  H        12.3754109395       12.3982078974       12.4201061510
  C        11.4479278500       13.9039880985       11.3033476321
  H        17.7955838285       12.4242215420       12.7248431584
  H        17.0538296460       12.5173031444       14.2176192499
  C        18.5663869541       13.9443919544       13.9969122111
  C        14.1860655137        7.6556274823       15.6552133100
  C        13.7744105143        9.8556948400       16.7920389775
  H        13.6560873242       10.6201685722        0.9789603040
  H        13.9956227137        9.2880314881       -0.0882693016
  C        12.0720007472       10.0825384683       -0.3142113943
  H        18.7550334345       17.1448275873        0.0380130441
  C        19.2173619484       15.6469376215       -1.3464099853
  H        11.7495605425       14.6181026762       10.4677015122
  H        11.1541208470       14.5349295722       12.0793654104
  C        10.2514193565       13.1353515100       10.7116500800
  H        19.0819114966       14.3781349798       13.1028074755
  H        18.1764937017       14.6633115548       14.7539724846
  C        19.6316610032       13.1696257502       14.8220791017
  N        14.5839845677        6.7473398678       14.6956393857
  C        13.9449363508        7.0689078214       16.8601453396
  C        13.3521506270        9.2026599297       17.9013625332
  H        13.6624711552       10.9039183849       16.9145302881
  H        11.6440472359        9.1179012412       -0.6468064796
  H        12.2691661134       10.6670229553       -1.2405568278
  H        11.4214367499       10.6522341576        0.3056573539
  S        19.5022750947       14.0274271938       -1.8211812690
  C        19.2760108412       16.6669921455       -2.4288418101
  H        10.6591980079       12.3294811946       10.1723157070
  H         9.6756241924       12.6894593875       11.5499013751
  C         9.2707395628       14.0940747666        9.8779761037
  H        19.8887492908       12.2876647340       14.2881733464
  H        19.1230984946       12.8567634275       15.7251727826
  C        20.9592656870       13.9367442247       15.1813452748
  S        14.3952971146        5.2078286151       15.2586627275
  N        13.9983451884        5.6600214023       16.7703471995
  C        13.4625876569        7.7038218566       18.0047660925
  H        12.8284199911        9.7738155565       18.6973841195
  C        19.6318722694       14.6475296145       -3.4800535819
  N        19.6305623137       16.0032904744       -3.5221248568
  O        18.9493734071       17.8185315649       -2.2256181582
  H         8.9108852220       14.8830805200       10.4856686551
  H         9.8675971924       14.6008606695        9.0469071917
  C         8.2843017864       13.2126114447        9.1748529441
  H        20.9971070583       13.8144995354       16.2944754371
  H        21.8312901238       13.4505703717       14.7813962519
  C        20.9819069490       15.4930524999       14.9358085359
  C        13.1272521986        6.9447874061       19.1727101340
  S        20.1463640970       13.7250321711       -4.8789104767
  C        19.5927063782       16.6762910857       -4.7868570411
  H         8.7390387844       12.7795934294        8.3197745666
  H         8.0508685839       12.3981527128        9.9383125168
  C         6.9769821156       13.9093198021        8.8125612029
  H        20.0768694268       16.0673696277       15.1106948744
  H        21.1874484862       15.6650376751       13.8868832361
  C        22.1347601850       16.0932991830       15.7720594737
  H        13.3940212283        5.8789712793       19.1928116239
  C        12.6618647499        7.2840895797       20.3748193905
  H        20.2441212865       16.3160729357       -5.5465605995
  H        19.8825326105       17.6738924609       -4.5971831206
  C        18.1659216910       16.6449999243       -5.4474028069
  H         6.6763609805       13.4138053931        7.8977180433
  H         7.0652585605       14.8934969675        8.4081302807
  C         5.9571937296       13.7376318433        9.9572341488
  H        22.0841112294       15.7446320865       16.7709392155
  H        23.1324824937       15.6858879654       15.3401921005
  C        22.1633996402       17.6353544822       15.8162345847
  S        12.2264413386        8.7959398935       20.9301336913
  C        12.6568873854        6.1905018484       21.3942574197
  H        17.8487821065       17.6811071002       -5.6888317498
  H        17.3970400097       16.2414929929       -4.7746647684
  H        18.0713644621       16.1052133849       -6.3607105639
  H         6.0739164848       14.3563397738       10.8244065620
  H         5.0028765110       13.9250003215        9.5183437266
  H         5.9985663578       12.7076802348       10.2996216893
  H        22.6206856343       18.0029914660       14.9577275656
  H        21.1630635422       17.9467631009       15.7830324034
  H        22.6409778442       17.9694253154       16.7234315183
  C        12.0352167252        8.0343733744       22.5007103046
  N        12.1713603263        6.6679953776       22.5727868740
  O        12.9487080912        4.9928796412       21.1320777892
  S        11.5825935092        8.7800953019       24.0350470226
  C        12.1683550514        5.8144094481       23.7800078146
  H        11.9395358984        4.7620426266       23.5417233739
  H        11.4242280447        6.0708262609       24.4230848198
  C        13.5189563746        5.9793397241       24.4869740947
  H        13.4143864300        6.5518524576       25.4345942536
  H        14.1195075178        6.6094927155       23.8680297216
  H        14.0992014964        5.0138977350       24.6453828602
