352
 i =    14000, time =    14000.000, E =        24.9278095950
  H        12.3228319601        7.0537422539       32.4676403785
  C        12.0163233890        6.0196493062       32.5070733614
  H        12.8706680754        5.3870833959       32.3352677601
  C        10.9091620262        5.9193295383       31.4133243508
  C        11.4533830420        5.5922858907       33.8449039660
  C        11.3739216744        6.3106002973       29.9978308232
  H        10.6202037417        4.9373608609       31.2915986770
  H         9.9759913482        6.4633934087       31.8160977508
  H        12.0247182328        5.0094450856       34.5844463142
  H        11.1126094355        6.5416468002       34.2885402486
  H        10.5310781896        4.9737548294       33.7413161176
  C        10.1645284511        6.1573083304       29.0228278762
  H        12.2258858440        5.6317001934       29.7701513288
  H        11.8209406444        7.2844503656       30.0886254308
  C        10.6278267920        6.2233680755       27.5904156191
  H         9.5166702342        5.3073351382       29.2667237254
  H         9.5226778420        7.0031749004       29.2621279723
  C         9.6377699825        5.5248202661       26.7355811026
  H        11.5491687580        5.6494032566       27.4669352710
  H        10.7109228207        7.2501592950       27.1615811900
  C         8.3383079249        6.3888058429       26.4662007946
  H         9.9925501682        5.4327948518       25.7126263390
  H         9.4564389708        4.5204190172       27.0940854582
  C         7.0794386270        5.6928275886       25.7251270512
  H         7.9539439302        6.8083216925       27.3617640885
  H         8.5832701236        7.2954307128       25.8752319067
  C         6.8294989335        4.2832249170       26.3593484769
  C         7.5440161661        4.9150283339       24.4617251715
  C         5.8631201969        6.5393990642       25.4017464571
  C         7.0960823308        3.1948437473       25.5649422909
  C         6.2844294705        3.8944635501       27.6017421740
  C         7.6365072498        3.5571322883       24.3619628283
  C         8.0858528944        5.5747927620       23.2995046404
  H         6.2043781370        7.2518728615       24.5589487986
  H         5.6731758999        7.1376566266       26.2575345165
  C         4.6403795887        5.7209456002       25.0142600496
  S         6.7749230901        1.6728633708       26.2763912641
  C         6.2905082869        2.5328763325       27.7212077676
  H         5.9574388808        4.6910403944       28.2607479493
  C         8.1826360885        2.9562278031       23.2664524657
  H         7.9890145686        6.6810529001       23.3071414637
  C         8.4537432134        4.9173198001       22.1421754501
  H         4.5422612429        5.2791988249       24.0446397538
  H         4.5509301558        4.7707492836       25.5953873984
  C         3.4168786826        6.5488219919       24.8332832318
  C         5.9083104103        1.8222675196       28.9669084884
  C         8.6448332579        3.6328625431       22.1212202900
  H         8.2567234139        1.8647737670       23.2840791169
  C         8.9027007332        5.3220887766       20.8773360745
  H         2.7236982667        6.2055988528       24.1092042203
  H         3.6682322584        7.4617649937       24.2724323317
  C         2.8005420664        6.8087890635       26.2163398527
  C         5.8394369303        0.4172982868       29.1809812728
  C         5.5046654385        2.7311313132       30.1340818739
  C         9.0044530635        2.9221395647       20.8946312170
  C         9.1429744302        4.2239704639       20.0947442812
  S         9.2481255695        6.8696451444       20.1152878417
  H         2.1225338643        7.6358408071       26.0974487288
  H         3.5833490767        7.0986548472       26.8481551546
  C         1.9215015130        5.6025986781       26.6989862546
  N         6.2851866794       -0.5184641750       28.2300310647
  C         5.5750558100       -0.1400728946       30.4542753482
  C         5.2420942994        2.1741806014       31.3438286218
  H         5.4175706091        3.8028097295       30.0523485638
  C         7.8742340039        2.0851167210       20.2104389581
  C        10.3723477335        2.2683959648       20.8373675515
  C         9.3287256035        4.6699345222       18.7821390898
  C         9.5922160292        6.0386689894       18.6249561257
  H         1.2144895274        5.4369844441       25.9064795697
  H         2.5304812012        4.7533866239       26.5735412181
  C         1.4869333488        5.7470748785       28.0597344600
  S         6.3155568742       -2.0472624669       28.9409159097
  N         5.7053955635       -1.5947590005       30.4368195677
  C         5.2814803803        0.6885497330       31.5904140144
  H         4.8739296008        2.8281974909       32.1474309996
  H         7.7438779693        1.1952023993       20.8411797725
  H         8.2330550790        1.7861611585       19.2026368581
  C         6.5597420965        2.7548586229       19.9057321375
  H        10.6384479681        1.8501370031       19.8543881980
  H        10.3892505745        1.3357482238       21.4272688603
  C        11.5723798526        3.1837921220       21.0406340853
  H         9.4830511957        3.9523655452       17.9694131478
  C        10.0684829619        6.6589562465       17.3812135505
  H         0.6032712086        5.1222976790       28.0648222814
  H         1.1469061633        6.7012762288       28.3794876895
  C         2.5672498356        5.4716874654       29.1329635962
  C         5.1119293744        0.0406602432       32.8415387322
  H         6.6981596374        3.6812874124       19.4097649136
  H         6.0935733287        3.0070833738       20.8528801578
  C         5.5452023312        1.9239169399       18.9954576165
  H        11.4194647205        3.7944999012       21.9406927807
  H        11.7106704849        3.8873992060       20.1886170381
  C        12.8322315743        2.3834698628       20.9523753538
  C        10.1705747164        8.0350064670       17.1109740171
  C        10.4196457578        5.8387164816       16.2558660585
  H         2.9112328903        4.4444282583       29.0013468252
  H         3.4230703868        6.0473675404       28.8743948662
  C         2.0613310649        5.7750104487       30.5742491701
  H         5.4247931706       -1.0210841932       32.8341610342
  C         4.8036590975        0.4020611016       34.1379290323
  H         5.7128536197        0.9342825183       19.2574048318
  H         5.8004987814        2.0761731832       17.9782160875
  C         4.0640659749        2.3203659867       19.1914513527
  H        12.7449088617        1.5587310901       21.6888033504
  H        12.9690200445        1.9377036791       19.9735212954
  C        14.0558654104        3.2938143548       21.1171037896
  N        10.0450371209        8.9764757931       18.1302934826
  C        10.4570631004        8.5277262887       15.8327446110
  C        10.5866845171        6.3317808568       14.9628808505
  H        10.5187274315        4.7499672430       16.3099683109
  H         1.5137001068        6.7170103087       30.6220207252
  H         1.3169269886        4.9894319260       30.7875253234
  H         2.8561939055        5.6977595324       31.3546203885
  S         4.3772067623        1.9589357720       34.6580455015
  C         4.6633547277       -0.7146246442       35.1282638899
  H         3.8420590912        2.5815352629       20.1951455513
  H         3.8995505150        3.1645097049       18.4321463618
  C         3.1648557405        1.1981350735       18.9656038793
  H        13.9009500346        4.2585652635       20.6533833179
  H        14.9448621192        2.9600337099       20.5946225130
  C        14.3680405964        3.4793237855       22.5990399313
  S         9.9643832422       10.4016857684       17.3455036662
  N        10.2705245317        9.9528082821       15.8738570361
  C        10.6783627176        7.7765245535       14.6642428299
  H        10.7793903126        5.6007759247       14.1981180075
  C         4.1327149844        1.1291621820       36.2371354981
  N         4.2473810801       -0.2068153847       36.2892575038
  O         4.7768866921       -1.8852142360       34.8979833264
  H         2.1912285038        1.4554496306       19.3224111120
  H         3.4873745565        0.4036601691       19.6407087858
  C         3.2623341796        0.7067178223       17.5612397752
  H        14.7870846915        4.5179292479       22.7300128133
  H        13.4537845108        3.5450784356       23.2064577655
  C        15.0727194582        2.2759541779       23.1578595286
  C        11.0277378688        8.4261848643       13.4671442645
  S         3.7672556710        2.0083678606       37.7056553934
  C         4.0762393651       -1.0112804163       37.5198332165
  H         2.2580184406        0.8068296161       17.0523530475
  H         3.8577942827        1.3746400344       17.0107920442
  C         3.8266548191       -0.7106268958       17.3330468306
  H        14.9669308768        1.4242632334       22.4870974120
  H        14.6242038219        1.9317668602       24.1068882013
  C        16.5765746697        2.3655144563       23.4932016223
  H        10.9461664818        9.5336443728       13.4893902590
  C        11.4088158971        7.9674028578       12.2192287862
  H         3.1913507309       -0.6436231474       38.0795955822
  H         3.8616404595       -2.0409088122       37.2825915955
  C         5.3257383143       -0.8785062451       38.4649491339
  H         4.2948655874       -1.0924597703       18.2265789326
  H         4.5872064942       -0.4746187353       16.6036613874
  C         2.7902404360       -1.7140626470       16.7631444851
  H        16.9331062453        3.0468375208       24.2129999166
  H        16.7833106735        1.3874643186       23.9514664252
  C        17.4361249231        2.4162340475       22.1934240365
  S        11.8661298840        6.3956117709       11.8860832373
  C        11.6609189035        8.9269431989       11.0388863641
  H         5.2849046922       -1.5044256272       39.3809012953
  H         6.2159118673       -1.2197146236       37.9232723188
  H         5.4268826715        0.1554894086       38.6220488713
  H         2.1806286033       -1.2715755239       16.0103316465
  H         2.2619775345       -2.1188918582       17.5999671223
  H         3.3768302909       -2.5348357493       16.3719650464
  H        18.4647914217        2.2447985487       22.5231007842
  H        17.4669103911        3.4323288001       21.7269499863
  H        17.0722525125        1.7059814676       21.5032153539
  C        12.0985869412        6.8825470672       10.2037741914
  N        12.1684421379        8.2502026732       10.0251631332
  O        11.5488028854       10.1589380882       11.0975833452
  S        12.5184879617        5.7181921263        8.9273824318
  C        12.5061277021        8.8856320066        8.7197458790
  H        12.9724541789        9.8426037170        8.8988619243
  H        13.2972254839        8.3296161535        8.1429210014
  C        11.2501633738        9.1219612818        7.8402463960
  H        10.9795778721        8.1967245490        7.2839067959
  H        10.3681816593        9.4057405314        8.3929297250
  H        11.3661878531        9.8484199925        7.0039528979
  H        21.0500628514       10.9660296426        3.5971994100
  C        21.7069398694       10.0883103806        3.7414287875
  H        21.0488978242        9.1725526551        3.9070026316
  C        22.7312590913       10.3388716424        4.9205550693
  C        22.3820410024        9.9176312712        2.5005654913
  C        22.0115126433       10.6296569608        6.2061806782
  H        23.2986725874        9.4150143545        5.0695547193
  H        23.3903066680       11.1690652822        4.7472170190
  H        23.0416951887       10.7439319231        2.4335473329
  H        21.7428725850        9.8973910462        1.6404497594
  H        23.1425704994        9.1247357552        2.4826365596
  C        21.3951840129        9.3917032791        6.8792651840
  H        22.7566826813       11.1056241709        6.8766141512
  H        21.2080874611       11.3627325805        6.1032171273
  C        20.7029430835        9.6790531401        8.1655259745
  H        22.1187163603        8.6297420372        6.9631912071
  H        20.6601773103        8.9833813279        6.1699320749
  C        19.4516799923       10.5464368664        8.0276354531
  H        21.5555875302       10.2039225638        8.5685562075
  H        20.6189443756        8.7503504886        8.7520542031
  C        18.1848545965        9.7948742498        7.5023492383
  H        19.1141478353       10.9152899360        8.9797538434
  H        19.6270904448       11.5154587636        7.5116960522
  C        16.8842014332       10.4877492389        7.3609645233
  H        18.0175789522        8.9932786128        8.2195248844
  H        18.4003097677        9.3863920864        6.5855942018
  C        17.2167753487       11.7525454550        6.6471180250
  C        16.2843393145       11.1831195030        8.5286369532
  C        15.8479239842        9.7032760113        6.5695769439
  C        16.8414436702       12.8692938681        7.3922296283
  C        17.6802269928       12.1069396845        5.3893117010
  C        16.2829091147       12.5115323141        8.5909080739
  C        15.7309145234       10.4968080424        9.6793399003
  H        16.3484973659        9.3682455719        5.7111924435
  H        15.4902207640        8.8013737374        7.1687003958
  C        14.6665648719       10.5884267069        6.1177970313
  S        17.2746464844       14.4035320947        6.6462799067
  C        17.6557480624       13.4781985366        5.2205692964
  H        17.9784095879       11.2341631085        4.7841275845
  C        15.8033373157       13.1774373439        9.6951207483
  H        15.6321189168        9.3792055321        9.6364828984
  C        15.3590421080       11.1225528977       10.8480955500
  H        14.9925992299       11.4788607358        5.5743670317
  H        14.0815544852       10.9145210820        6.9435762657
  C        13.7525226337        9.8952647822        5.0604711929
  C        17.9476066179       14.2175523084        4.0062746804
  C        15.3785216676       12.5188670763       10.8914973102
  H        15.8495661105       14.2315763272        9.7223746336
  C        14.9399333085       10.8544195338       12.1411825631
  H        12.8230706993       10.4866765596        4.9414115691
  H        13.5113527881        8.9068765941        5.3257766990
  C        14.3898013018        9.7148992580        3.6589118615
  C        17.9755398391       15.6170635769        3.7859357515
  C        18.3859574780       13.4029689800        2.8627491637
  C        14.9759903117       13.2569394784       12.0931164110
  C        14.6125811420       11.9959179013       12.8518032016
  S        14.5349573906        9.3612266507       12.9902019445
  H        14.9525745227        8.7662161394        3.6561006211
  H        15.0929442406       10.4907723201        3.2880999783
  C        13.2477255965        9.8224785390        2.5968660879
  N        17.5690988914       16.6847938330        4.6144573778
  C        18.3962303124       16.1543585083        2.5493191406
  C        18.6195715068       13.9290826874        1.6004486508
  H        18.2069678618       12.3377530932        2.9538592418
  C        13.7593520604       14.1766916762       11.8647581610
  C        16.0542856930       14.1582248872       12.7857369092
  C        14.1495093259       11.6992317227       14.1009033795
  C        14.0878440981       10.3588884206       14.4012451052
  H        12.5146870546        9.1003684399        2.8662126260
  H        12.7219713952       10.7835544244        2.6296920120
  C        13.6796644545        9.4399326732        1.1915249237
  S        17.8435867888       18.0888885469        3.9085407482
  N        18.4118709909       17.5573978647        2.5165438556
  C        18.7521682803       15.4335266276        1.4423172433
  H        18.8062082320       13.2550359958        0.7610267641
  H        14.0037770222       14.9043762110       11.0638268436
  H        13.5605976130       14.8484302625       12.6744684333
  C        12.5226290918       13.3638127698       11.5122470289
  H        16.3959033670       14.8854096895       12.0346414063
  H        15.6299907984       14.7539007052       13.5966077831
  C        17.2220408364       13.2980331695       13.3458557588
  H        14.1568702235       12.5179112946       14.8924076426
  C        13.8135669488        9.7037122477       15.7219636102
  H        14.1081772886        8.3898772527        1.3312392266
  H        14.4583344486       10.1309096271        0.9918873892
  C        12.5244590281        9.2544328769        0.1276674332
  C        18.8489801758       16.0146479125        0.1678310149
  H        12.7775099734       12.7646409615       10.6340908140
  H        12.2247996881       12.7106445015       12.3406482312
  C        11.2891536424       14.2427887255       11.2135233725
  H        17.4655151660       12.5749377586       12.5877448206
  H        16.9203456068       12.7468868725       14.2287332888
  C        18.3875494540       14.2206156966       13.6976194713
  C        13.7423512475        8.2958042630       15.9573667415
  C        13.5804610118       10.5678391163       16.9169132217
  H        12.3689475765        8.1503008832       -0.0523708489
  H        11.6163743862        9.7072442763        0.4495392117
  C        12.9279480699       10.0286068963       -1.0958611870
  H        18.8205083831       17.0868236568        0.1089293609
  C        19.2137218351       15.5662560228       -1.0615556395
  H        11.5067196578       14.9445552435       10.3493973922
  H        11.0323103310       14.8308517537       12.1184353304
  C        10.0186106224       13.3706229581       10.9400599661
  H        18.7673641865       14.7288497629       12.8204757900
  H        17.9588456179       15.0254752228       14.3009710818
  C        19.5199134197       13.4271605611       14.4106263904
  N        13.9734982053        7.2453057351       14.9906835437
  C        13.5009702984        7.7954792372       17.2154874935
  C        13.3497048336       10.0197354759       18.1157991515
  H        13.4147496038       11.5762302126       16.9170519323
  H        12.1380237267        9.8059063703       -1.8673695312
  H        13.9221335841        9.5560805037       -1.4240049973
  H        13.0959896874       11.1822693684       -1.0281131416
  S        19.5853089586       13.9639988073       -1.5432867973
  C        19.2594678527       16.6077730612       -2.1741445317
  H        10.4183313711       12.3956672881       10.4869900884
  H         9.4777262251       13.2958770455       11.9030197953
  C         9.1369407857       13.8116461023        9.8229173185
  H        19.7115199934       12.5437111315       13.8263152768
  H        19.2364593963       12.9714986411       15.3878798604
  C        20.8608135039       14.2211768207       14.4781763348
  S        13.6908299378        5.7999125886       15.7514469217
  N        13.4339342199        6.3783138868       17.2631810429
  C        13.3023631280        8.5962455949       18.3458838608
  H        13.2131700924       10.6449902003       18.9511732504
  C        19.9521261562       14.6078845390       -3.0960329262
  N        19.7481704505       15.9723554443       -3.2552844779
  O        18.9842928769       17.8219789219       -2.0760690226
  H         8.4442418964       14.5979985490       10.1362524414
  H         9.7851902700       14.2820993112        9.0580401253
  C         8.1655749280       12.7725397163        9.2530707833
  H        21.4726259444       13.8722248137       15.2973188600
  H        21.3839115874       13.9937205247       13.6192669411
  C        20.6344476885       15.7755886524       14.5235936745
  C        13.0193697435        8.0072377784       19.6355637025
  S        20.2413159667       13.5400517361       -4.4011450868
  C        19.8922626771       16.5805432466       -4.5608222239
  H         7.8264652271       12.9924281124        8.2188556577
  H         8.6478997190       11.7709697566        9.0320025814
  C         6.8289588188       12.6510251506       10.0339425533
  H        19.9366765694       16.0155205562       15.2941660897
  H        20.3501227141       16.1592958963       13.5181149388
  C        21.9262810091       16.5387853191       14.8185695660
  H        13.1959564892        6.9109264646       19.6357080116
  C        12.4533511635        8.4713400288       20.7756661851
  H        20.6297866391       16.1699776516       -5.2679744862
  H        20.2644367216       17.5897924340       -4.4093505704
  C        18.5574151562       16.6878985585       -5.2742682373
  H         7.1282370759       12.8665847566       11.0876488700
  H         6.4159610103       11.6579077471        9.9566966526
  C         5.8623427263       13.7312674367        9.5637164738
  H        22.7193557567       15.7930364112       14.9485051636
  H        22.1212286883       17.3064343346       14.0326974322
  C        21.8419185660       17.4712018860       16.0177464278
  S        11.6236215178        9.9401764820       21.0123455241
  C        12.4667032631        7.6440898680       21.9946690058
  H        17.8793878888       17.5335938125       -4.9647982176
  H        17.9915950030       15.7752352207       -5.0364936790
  H        18.6089825825       16.5529629820       -6.3796011880
  H         4.8974586370       13.6073958443       10.0599487043
  H         6.2693747038       14.7346926149        9.7442181616
  H         5.6065156140       13.6146078026        8.5391793188
  H        20.8862147198       17.5302038756       16.5624886616
  H        22.6676281535       17.2374760967       16.7147287437
  H        21.9148302208       18.5161451762       15.7127340879
  C        11.3386366366        9.4467771418       22.6594249262
  N        11.8253655603        8.2680525065       23.0144458005
  O        12.9628868800        6.5068174960       22.0292811607
  S        10.4336420972       10.3565627358       23.8268230303
  C        11.4686869379        7.4830018210       24.2235636391
  H        11.2023489487        6.4337223994       23.9375855890
  H        10.5759201104        7.7618790287       24.7914438834
  C        12.7033904392        7.3011052541       24.9774683727
  H        12.6730332723        6.2418364566       25.2657055918
  H        12.9215865042        8.0430187080       25.7832732357
  H        13.6026768790        7.3364292990       24.3899087680
