352
 i =    24000, time =    24000.000, E =        25.2385333022
  H         9.4152822665        7.0126683159       32.4630663728
  C        10.2878007816        6.4191860138       32.1132083191
  H        11.0701770168        7.1724317273       32.2835696068
  C         9.9663758124        6.1227720472       30.6531217354
  C        10.3241446136        5.3566937981       33.1729406348
  C        10.9979100585        5.1011976852       30.1039596984
  H         9.0441230631        5.6463515986       30.5221536022
  H        10.0322259884        6.9935406354       30.0242453157
  H        11.1484110322        4.6494821791       33.0766325365
  H        10.4460980700        5.7531082950       34.1609764955
  H         9.3871498965        4.8930181598       33.2621816616
  C        10.5575868546        4.4228114975       28.8099203059
  H        11.2113721200        4.2513464090       30.7692492865
  H        11.9575697464        5.5712727041       29.9009951325
  C        10.8413042936        5.0963206487       27.4444648601
  H        11.3075718655        3.6424925643       28.8710457490
  H         9.5725459884        3.9950763968       28.6329692463
  C         9.9963487835        4.5194639852       26.2674674036
  H        11.9180994716        4.9168349956       27.2408224533
  H        10.6254621348        6.1760811636       27.5863546317
  C         8.7240654174        5.3437614701       26.1080316437
  H        10.4971675089        4.6076409539       25.3462306388
  H         9.8005123912        3.4772097869       26.3452887990
  C         7.5392878354        4.6182583978       25.5987949514
  H         8.4576766953        5.7241797253       27.0936897916
  H         8.9805548372        6.2480035427       25.5627638420
  C         7.2157652575        3.2841032834       26.2912281690
  C         7.9360720551        3.9075205371       24.3185943979
  C         6.1790430292        5.4137610177       25.5708792396
  C         7.5065848503        2.2168293836       25.4818523474
  C         6.7386873701        2.9194307321       27.5702298472
  C         7.9035761629        2.5622299020       24.1908955739
  C         8.1798171396        4.6508701531       23.2088968760
  H         6.3556057619        6.4082973597       25.1767779299
  H         6.0063534381        5.6920876545       26.6097184460
  C         4.8440175775        4.7171089885       25.1561570479
  S         7.1772078599        0.6845222727       26.2908752100
  C         6.5619535946        1.5645829954       27.7016166137
  H         6.5970910336        3.7260578468       28.2464865761
  C         8.2626370927        2.0032745626       23.0282779464
  H         8.1086839275        5.7307333376       23.2165902384
  C         8.4696294552        4.1048270260       22.0247625512
  H         5.0078221021        4.2931013084       24.1487634926
  H         4.6390850750        3.8367584833       25.7865878418
  C         3.6679001343        5.6445826335       25.1846565876
  C         6.0341283771        0.8874729267       28.9956964673
  C         8.5097829894        2.7635134590       21.8346875265
  H         8.3979516539        0.9260489388       22.9907189759
  C         8.7883621218        4.5302172428       20.7726773138
  H         3.0036390337        5.2304335685       24.4073481065
  H         3.7010053656        6.6815104425       24.8023215461
  C         2.9282787604        5.8154219022       26.5271836436
  C         6.0188175447       -0.4997486589       29.3250250064
  C         5.6759463489        1.7263125678       30.1154628222
  C         8.8251001297        2.1138115581       20.5150414117
  C         8.9704646310        3.4941565920       19.8332286915
  S         8.9435762175        6.0868336165       19.9995910609
  H         2.2240976565        6.6939334702       26.3757682831
  H         3.6648160725        6.2203270364       27.2414265155
  C         2.2651633379        4.6223185778       27.1812973087
  N         6.3639008131       -1.5027205451       28.4654416319
  C         5.6479716747       -0.9729953542       30.5347181400
  C         5.4778170103        1.2420738053       31.4378103413
  H         5.6190531146        2.8252185812       30.0354556819
  C         7.6273409394        1.2009562239       19.9703001149
  C        10.2498052324        1.2664806369       20.5199452910
  C         9.3310579515        3.9423324577       18.5659589092
  C         9.3265908792        5.3218709545       18.4897981738
  H         1.6647309939        4.0469726494       26.3995775835
  H         3.0791994144        3.9294488780       27.5835578015
  C         1.2863655457        4.9920840511       28.3215373881
  S         6.1570963670       -2.9456118647       29.2765765702
  N         5.5490640913       -2.3747439693       30.6395467083
  C         5.2900415768       -0.2032402073       31.6470977413
  H         5.2771444318        1.9238358475       32.2077551317
  H         7.2972594594        0.7323947048       20.9490075439
  H         8.0007224024        0.4402246243       19.2257232885
  C         6.4200055233        1.9846531742       19.4470950252
  H        10.5823874733        0.7852816372       19.6001750320
  H        10.1059767098        0.3942486001       21.1373910078
  C        11.4582945114        2.0349404050       21.1625109946
  H         9.5908618034        3.2203560291       17.8109868180
  C         9.6664880170        6.1609383772       17.3331504472
  H         0.6690826876        4.1785107895       28.7751401288
  H         0.5553930495        5.6303729794       27.8715746926
  C         1.9371120860        5.7728424724       29.3834003113
  C         5.0039058293       -0.7117770493       32.9208713956
  H         6.7271744545        2.5921364227       18.5287991740
  H         6.0884190922        2.6817950532       20.2849458466
  C         5.1870722653        1.0551390068       19.2322713822
  H        11.2896638434        2.1817403612       22.2412897983
  H        11.5623867049        3.0352252220       20.6865636387
  C        12.7917883284        1.2027669339       20.8865669563
  C         9.7968064610        7.5484720140       17.3029112620
  C         9.9474145983        5.4444746345       16.0716356036
  H         3.0326259232        6.0576855887       29.2562001178
  H         1.4146719243        6.7095118506       29.5155503690
  C         1.9478618358        5.0817284494       30.7843490791
  H         5.2064026582       -1.7391560760       33.0141385193
  C         4.6309985016       -0.2405366458       34.1586956012
  H         4.9753091541        0.5265616615       20.0853877232
  H         5.3970068959        0.3155067727       18.4413035132
  C         3.9085096719        1.9014269793       18.9543157843
  H        12.8958790418        0.4016625677       21.6762142136
  H        12.7354741712        0.7066488767       19.8740086586
  C        14.0067074872        2.0585637805       20.9077901468
  N         9.5321737992        8.4969747962       18.3375911248
  C        10.2075356537        8.2433618122       16.1709575193
  C        10.3552795377        6.1544901320       14.9117859719
  H         9.7506369947        4.3854448144       15.9481531051
  H         2.3530793551        5.7568823140       31.4808740214
  H         0.9369964486        4.7460215052       31.0673225259
  H         2.6579343846        4.2085769692       30.7016441521
  S         4.3335840095        1.4034252141       34.5461893859
  C         4.4297463236       -1.2349942238       35.2146089747
  H         3.7662252123        2.5841760590       19.7555107298
  H         4.0165499721        2.5138084784       18.0304349888
  C         2.6780320245        1.0573629423       18.7878602638
  H        13.9016480332        2.9443201119       20.2898706386
  H        14.8435484036        1.4574963459       20.4868307322
  C        14.5083725524        2.5923248948       22.2611805286
  S         9.7282219305        9.9593857611       17.8418875547
  N        10.0630463565        9.6344286762       16.2838229299
  C        10.5678064170        7.6264044714       14.9319187085
  H        10.5169226536        5.6337522658       13.9680807697
  C         4.0597511789        0.7896731221       36.1959899993
  N         4.0115694419       -0.5807009423       36.3146730824
  O         4.6570299977       -2.4002628093       35.0872228076
  H         1.7266145635        1.7433062280       18.6284809906
  H         2.4885269277        0.4043726389       19.6117654991
  C         2.7278260043        0.1582842957       17.5277340865
  H        15.3001319082        3.3673857026       22.1040356118
  H        13.6832867965        3.1223329481       22.6949324397
  C        15.0374302837        1.5397028372       23.2570911619
  C        10.9461984691        8.4316626899       13.7540209160
  S         3.6796833872        1.7321067929       37.5915645539
  C         3.9956086633       -1.2589712536       37.6639268942
  H         2.3791486833        0.7286562394       16.6268753425
  H         3.6858681650       -0.3192647783       17.2749410895
  C         1.7735015667       -1.0372656622       17.7730560862
  H        15.1393034042        0.5319993590       22.8290159797
  H        14.3471399474        1.3926374962       24.0804897088
  C        16.3519467736        1.9302606259       23.8712854727
  H        10.6515075856        9.4197040918       13.8359435818
  C        11.4330881306        8.1201527030       12.5205370228
  H         3.3863443543       -0.8674912202       38.4106901108
  H         3.5413606437       -2.2499675910       37.4824933929
  C         5.3907480316       -1.3080304797       38.2143806922
  H         0.9469634769       -1.0013011278       17.0476717204
  H         1.1370028752       -0.9224532064       18.6151945245
  C         2.3893739390       -2.3888987435       17.9321869892
  H        16.2664743228        2.9565953878       24.3127244910
  H        16.5328612964        1.3075394268       24.7286654056
  C        17.5218714258        1.7700096263       22.9661126463
  S        12.0666584061        6.6421181808       11.9440198074
  C        11.3727171789        9.1769611736       11.4773824165
  H         5.6378621010       -0.3131295960       38.4987031289
  H         5.3777882054       -1.8001302480       39.2027980649
  H         6.2004338337       -1.8196327128       37.6849383915
  H         2.6199642682       -2.7420037534       16.9167883761
  H         1.6691285662       -3.0355622351       18.3927483173
  H         3.2179638459       -2.3670915135       18.5549688409
  H        18.3949452108        1.3859925163       23.5519263298
  H        17.8125160629        2.7938661302       22.5166583790
  H        17.3599359110        1.0887993671       22.0762041853
  C        12.3220464228        7.4889506100       10.4136357915
  N        12.0513176911        8.7623663810       10.3945376017
  O        10.9091911308       10.2653449251       11.6368144374
  S        13.2289420802        6.9261255391        9.0499606645
  C        12.1921154245        9.7676127247        9.3377585964
  H        12.2695374147       10.7997904503        9.6865785133
  H        13.1825854788        9.6258499377        8.9613175957
  C        11.0541583886        9.8012506532        8.3286096873
  H        10.2570302409        9.1347653176        8.6375010549
  H        10.5983798736       10.8327383885        8.2957845752
  H        11.5120745689        9.6626192861        7.3347979248
  H        21.4553587042       11.2518454219        3.4797498326
  C        21.7450655300       10.2028820197        3.5342265657
  H        20.8060583742        9.7129240588        3.5062084223
  C        22.5478158445        9.9010816895        4.7709324582
  C        22.4426734010        9.9501164347        2.2547594817
  C        21.6919534265       10.3139033832        6.0234938402
  H        22.8767449045        8.8872695880        4.8910215531
  H        23.5817519337       10.3483490596        4.7593282785
  H        21.8611273915        9.4439215833        1.6040661571
  H        23.3272006374        9.3705948742        2.3682119232
  H        22.5690994836       10.9129270866        1.6555438024
  C        20.7955069720        9.1715148557        6.4392061348
  H        22.4655003602       10.5573531591        6.7971732374
  H        21.1502754648       11.2276752780        5.7481862683
  C        20.0566521437        9.2785443547        7.7978527064
  H        21.2736273583        8.2167636796        6.3952457927
  H        20.0011080838        9.0981297905        5.6633547604
  C        18.9254071094       10.2599494277        7.8012184956
  H        20.7794282154        9.6969188775        8.4735366855
  H        19.6725371134        8.3180007837        8.0912298929
  C        17.6006697117        9.6530940926        7.5188116467
  H        18.9285021346       10.6751329884        8.7789892430
  H        19.2259731128       11.0669055654        7.0700794296
  C        16.4494324428       10.6445279443        7.3022506983
  H        17.3550762567        8.8667869320        8.1487889078
  H        17.7475846934        9.0634256741        6.5936536530
  C        16.8746901703       11.9871699881        6.5455827004
  C        16.1502507514       11.4283869726        8.4928380813
  C        15.2122189153       10.0246805568        6.6414150419
  C        16.7231376019       13.0750324256        7.3573791798
  C        17.4550425769       12.3442729077        5.3496453478
  C        16.1046366469       12.7699498938        8.5807593280
  C        15.7185505269       10.8082656299        9.6238658039
  H        15.5296417610        9.6050882148        5.7497502163
  H        14.8746898622        9.1964701118        7.2079748572
  C        14.0851978850       11.0278876062        6.2883400768
  S        17.1740296121       14.5882688494        6.5567578625
  C        17.7070952808       13.6669739612        5.2099753328
  H        17.5307413493       11.6306798931        4.6172210670
  C        15.8028504070       13.4477447726        9.7915362868
  H        15.7159715694        9.7450306929        9.5451186167
  C        15.4069911130       11.3955590251       10.7627940756
  H        14.3283853906       12.0230706232        5.9452291076
  H        13.5092520268       11.1717005050        7.2079928927
  C        13.1427547735       10.4381036284        5.2609021561
  C        18.2057740029       14.3740484892        3.9045106491
  C        15.4361867983       12.7422282664       10.9575219468
  H        15.9717277641       14.5114448739        9.8677468026
  C        14.9455358313       11.0040309975       12.0014408738
  H        12.0889547077       10.8238645206        5.3771467239
  H        13.1662291440        9.3626026108        5.2611091022
  C        13.6376191422       10.8184609842        3.8525087257
  C        18.1436354099       15.7475797473        3.6192672824
  C        18.5103034954       13.4315513914        2.7713655526
  C        15.0672320781       13.4653715075       12.2945556135
  C        14.8015928321       12.0841011365       12.8416822599
  S        14.4897934541        9.5291252354       12.6080717684
  H        14.7173757012       11.0583036046        3.7616110300
  H        13.2103689616       11.7481262763        3.4840668963
  C        13.2017703845        9.7693402410        2.8566339414
  N        17.8151552404       16.8064777155        4.4928137982
  C        18.3051664467       16.1997183668        2.3251949748
  C        18.8122368671       13.9484176843        1.5139318800
  H        18.4573766889       12.3081027425        2.9018739324
  C        13.7112408036       14.2454008412       12.1686123039
  C        16.3170726199       14.1926666838       12.9063873438
  C        14.4411277797       11.6906792299       14.0943516968
  C        14.2802744196       10.3102464248       14.1832459942
  H        13.8856131826        8.8480572649        2.8402481904
  H        12.1445694484        9.4399250364        3.0079170023
  C        13.0565550639       10.3250449035        1.4730547991
  S        17.8727332723       18.1719354609        3.6570899093
  N        18.0285797462       17.6258906820        2.1856367293
  C        18.7139435650       15.4104546536        1.2253687678
  H        18.9905728460       13.2815363894        0.6876411020
  H        13.8349610681       15.0760520271       11.5537493029
  H        13.3921358084       14.4785193805       13.2052864034
  C        12.5765401638       13.5588852757       11.5013940484
  H        16.6582460813       15.0276108689       12.3105291449
  H        15.8472118925       14.6890476652       13.7679489682
  C        17.4874904668       13.2857347653       13.2757787792
  H        14.4009362442       12.4509614623       14.8758409053
  C        13.9891049821        9.6085768880       15.5039043892
  H        13.5357715639       11.3373634646        1.4038658056
  H        11.9964786089       10.4194585165        1.1865131174
  C        13.6454238974        9.3583048088        0.4596102040
  C        18.9683303053       15.9938487095       -0.0891899462
  H        12.7557286435       13.3094540004       10.4493898059
  H        12.4442864768       12.5775370197       11.9803585389
  C        11.2020529114       14.3665405580       11.5316185659
  H        17.8018070253       12.8024871751       12.3277442159
  H        17.1895736033       12.4657312365       13.9113442552
  C        18.6880928409       14.0766598652       13.7192065796
  C        13.8804574135        8.1733849675       15.5953757822
  C        13.9772531608       10.2916224770       16.8118616658
  H        14.7168296279        9.5607365572        0.3754851101
  H        13.5339896011        8.2751795583        0.6923147177
  C        13.0743545523        9.6384705348       -0.9480964536
  H        18.9179139742       17.0897518815       -0.1562282467
  C        19.1722801462       15.3399682632       -1.2894015908
  H        11.3811290296       15.2585837614       10.9675694159
  H        11.1076856685       14.7395283063       12.5294793299
  C         9.9708753685       13.6758332387       11.0235862820
  H        19.0176382905       14.5228336256       12.7535623621
  H        18.3485680660       14.9308020381       14.3462747239
  C        19.6850409344       13.1349302119       14.3108371668
  N        14.1867286223        7.2639485338       14.5584705730
  C        13.4829686363        7.4832391536       16.7274455313
  C        13.6131389477        9.6052320469       17.9302027919
  H        14.1883130784       11.3276849577       16.9399625935
  H        13.3940210746       10.5941303040       -1.3562240433
  H        11.9488355960        9.6329725091       -0.8088271065
  H        13.3383735909        8.8691772536       -1.6157857293
  S        19.3729374622       13.7096984999       -1.7242318746
  C        19.2147652294       16.1950794454       -2.5340722993
  H        10.2993096771       12.8014523915       10.4443647836
  H         9.4376620513       13.2599931419       11.9277953726
  C         9.0501400221       14.4755779581       10.0373966693
  H        19.9702214775       12.4652597933       13.4685193772
  H        19.0941732626       12.4923745854       15.0136606307
  C        20.9281768127       13.8415898130       14.8132807838
  S        13.7005688639        5.7438558423       15.0519490499
  N        13.0852182596        6.1556923708       16.5451591392
  C        13.3270046648        8.1604662635       17.9678679629
  H        13.5098581167       10.1573561512       18.8390916108
  C        19.8168510874       14.2199067176       -3.4290562508
  N        19.6131954730       15.5264092783       -3.6257535308
  O        18.9521913927       17.4368196309       -2.4737083101
  H         8.4411923753       15.2257121208       10.5321873141
  H         9.6589715284       15.0060954933        9.2824567343
  C         8.0549158585       13.5153266261        9.3407234232
  H        21.5264653052       13.0028051349       15.2512371866
  H        21.5735832633       14.1480039661       14.0285358161
  C        20.8963511955       15.1389940009       15.6453237925
  C        13.0629863126        7.3537824466       19.1554664095
  S        20.0259386625       13.1048718218       -4.8080583188
  C        19.7181170327       16.1718936743       -4.9524778193
  H         8.2831029322       13.2751987452        8.2525677921
  H         8.0746144897       12.5922255379        9.8186203294
  C         6.6258777530       14.0258866441        9.3075697649
  H        21.7108840247       15.1190464338       16.4158712661
  H        20.0283144392       15.0969663933       16.3293498459
  C        20.8771511313       16.4836954469       14.9428486109
  H        13.3511615765        6.3093946245       19.0526015377
  C        12.6130073669        7.6983271626       20.4059547994
  H        20.3957167336       15.6613898575       -5.6292253792
  H        20.1917269416       17.1317339298       -4.8050359709
  C        18.2371529171       16.4552615293       -5.5886808816
  H         6.1321072993       13.5748433866        8.5082733323
  H         6.5781736405       15.0945135529        8.9813256858
  C         5.9794445511       13.7237217322       10.6397982788
  H        21.4019394384       16.4365660191       14.0100631331
  H        19.9294741757       16.6747487800       14.5399663485
  C        21.3881459072       17.6648349893       15.7454065933
  S        11.8926052253        9.1863752089       20.7007332001
  C        12.4868384435        6.5900077026       21.3453511446
  H        18.2809207192       16.6618562814       -6.7037860993
  H        17.7886803301       17.4127021618       -5.2703078594
  H        17.4652330206       15.6832241395       -5.4704628695
  H         4.9460252973       13.8523044952       10.4099398346
  H         6.1465990434       12.7718532377       11.1479487507
  H         6.0901680285       14.4804453913       11.4319583384
  H        21.7476739816       18.4320809659       15.1087611618
  H        20.5088381355       18.0066883152       16.3155320249
  H        22.2518130575       17.3672529779       16.3585906231
  C        11.3909147365        8.3361993156       22.2247060317
  N        11.7761965208        7.0789301735       22.3857433927
  O        12.9417499455        5.4490292716       21.2257067981
  S        10.6976674131        9.1149882068       23.6361863004
  C        11.6453126174        6.2371086430       23.5259292915
  H        11.4378425073        5.1764241695       23.3095303172
  H        10.7609268799        6.5908944385       24.1472652789
  C        12.9305179073        6.2804174221       24.3806287514
  H        12.7609550786        5.7021777914       25.2992760021
  H        13.2091536319        7.2532678417       24.6761551614
  H        13.7410325563        5.9680274871       23.7922636223
