352
 i =    12800, time =    12800.000, E =        25.5045920300
  H        11.9331865402        6.8011299914       32.3140259830
  C        11.6126665992        5.7524669982       32.6317654992
  H        12.4483130405        5.1449057033       32.4501891712
  C        10.6141130320        5.4208521723       31.6023046733
  C        11.0890405184        5.5452018938       34.0444108344
  C        11.0069282571        5.8693654296       30.1771753088
  H        10.4895290575        4.3607592941       31.6206021320
  H         9.6645724111        5.8908251664       31.8317153421
  H        11.8792605795        5.3780800504       34.7443436877
  H        10.4508440864        6.3836834042       34.3763744794
  H        10.5066665386        4.6068486103       34.1762309947
  C        10.0028473688        5.4333000982       29.0931173184
  H        12.0076939687        5.4337840415       30.0250292694
  H        11.1147937214        6.9638565532       30.1608234749
  C        10.6163725841        5.6137261320       27.7360945603
  H         9.6046614622        4.4412090673       29.2320724733
  H         9.1700542125        6.1332932700       29.1951893017
  C         9.7201002573        4.9331947266       26.6307696042
  H        11.5567872662        5.1062351317       27.8243583034
  H        10.7788828934        6.6690127596       27.6462923492
  C         8.5583080616        5.8427230448       26.2964936632
  H        10.3314039274        4.5463127867       25.8035933718
  H         9.3283437413        4.0744469786       27.1537312752
  C         7.3933158889        5.0775254742       25.5742074509
  H         8.2036649429        6.4967607537       27.0452582273
  H         8.9723469524        6.4934475273       25.5466121911
  C         7.0932103350        3.7217830584       26.3351012028
  C         7.8382434989        4.2500265473       24.4514568617
  C         6.0885407155        5.9024929028       25.2992748308
  C         7.3608995302        2.5655181843       25.6025321747
  C         6.4707693949        3.4405778825       27.5406197098
  C         7.8062950137        2.8999196108       24.3459775345
  C         8.2630052014        4.9387953159       23.3284534150
  H         6.1601210809        6.7060724662       24.6070891500
  H         5.7480711466        6.3324805773       26.1838233726
  C         4.8870003502        5.0269288735       24.8167216549
  S         7.0574542851        1.1482779166       26.4952596747
  C         6.3823024985        2.0695757650       27.8000305600
  H         6.2873752565        4.2637368199       28.3042378181
  C         8.1072963069        2.2579631134       23.1542235881
  H         8.3263807209        6.0171662912       23.3530534921
  C         8.4360726498        4.3373894448       22.1082235239
  H         5.0922529785        4.5777404310       23.8369367719
  H         4.7194211738        4.2432519120       25.5451062210
  C         3.6444714281        5.9354955758       24.6008485158
  C         5.8896946971        1.4499866974       29.0808891840
  C         8.3981371807        3.0064617538       21.9837145265
  H         8.0541706146        1.2117800348       23.1886149334
  C         8.8753624127        4.7716360831       20.8726026683
  H         3.1050097026        5.5337630887       23.7861048468
  H         3.8783447615        7.0146015377       24.2610912190
  C         2.8757785633        6.1989968612       25.8973695273
  C         5.9382240268        0.0526855146       29.3667292870
  C         5.3709405621        2.3697836894       30.1026635420
  C         8.6951140354        2.2863426181       20.6951349849
  C         9.1479402271        3.6672171915       20.0799278610
  S         9.3813159575        6.1788261405       19.9995175636
  H         2.1673419562        6.9984375626       25.8636152410
  H         3.5452605155        6.6527265665       26.6202355348
  C         2.0906530166        5.0285416499       26.5709911738
  N         6.2234567251       -0.9292575204       28.4298553678
  C         5.7187063430       -0.4323262868       30.5865839012
  C         5.0307916908        1.8290084109       31.3748043713
  H         5.2138094331        3.4421205870       29.9762750737
  C         7.5930354243        1.5411655658       19.8995388133
  C         9.8907700148        1.2927140721       20.8296692906
  C         9.5826051596        3.9691087797       18.7723921223
  C         9.7532677108        5.3207832032       18.6126281353
  H         1.3308626548        4.7152697830       25.8936015505
  H         2.6276679299        4.0658646955       26.6115134828
  C         1.3903622971        5.3091057086       27.8648641642
  S         6.1095919386       -2.3746494664       29.1588576290
  N         5.8259988434       -1.8271095551       30.6232308292
  C         5.3122622989        0.3595404071       31.6657759416
  H         4.6624482962        2.4421483562       32.1630189885
  H         6.9935146938        0.9193532189       20.5507118031
  H         7.9556076592        0.8631524296       19.0914934599
  C         6.5201241844        2.3735663450       19.2228458433
  H         9.8827233689        0.6239177581       19.9580006523
  H         9.7478971959        0.5370621783       21.5992997170
  C        11.2670076372        1.9764088070       21.1059109204
  H         9.7897287993        3.1310979372       18.0558254243
  C        10.0776313851        6.0626417795       17.3424155763
  H         0.6468648721        4.5348270741       28.1162121114
  H         0.8931153113        6.2823333472       27.9436409093
  C         2.4225824024        5.2194249893       29.0301583251
  C         5.1974305373       -0.2941014555       32.9472625064
  H         6.8788338304        2.9421419507       18.4030071844
  H         6.2047261316        3.0788928201       19.9610323902
  C         5.3180379328        1.5252792748       18.7805300457
  H        11.2096856512        2.5108849881       22.0424162169
  H        11.5728830901        2.6532408286       20.3334849758
  C        12.4470858911        1.1142401276       21.2366968069
  C        10.2458823634        7.4448962948       17.2363646302
  C        10.0524120751        5.3557698968       16.0367972822
  H         3.1522152173        4.3687722482       29.0475507550
  H         2.9113803913        6.1635132507       29.1215374042
  C         1.8176666207        5.2668203658       30.4160196877
  H         5.2541404672       -1.3366225026       32.9590567304
  C         4.7728465382        0.1243051943       34.1599834834
  H         5.0567260777        0.9013489412       19.6073180707
  H         5.6435049463        0.8679660161       17.9731862609
  C         4.0499258233        2.2871133466       18.4119615902
  H        12.4329033892        0.8796470781       22.2762990801
  H        12.4131611021        0.1124853260       20.7029940610
  C        13.8374267359        1.9165295546       20.9287604715
  N        10.0385789234        8.3960676812       18.2801310089
  C        10.5072331944        8.0965553243       15.9915294223
  C        10.4215393559        5.9725266590       14.8128379301
  H         9.8314073329        4.2765737865       16.1348272498
  H         1.2095642825        6.1040586321       30.4962063131
  H         1.0894799848        4.4908876846       30.7232386684
  H         2.4884379224        5.3686445734       31.2558908431
  S         4.4569466169        1.7099760788       34.6329180439
  C         4.7084543191       -0.8954993584       35.2226131298
  H         3.9454539639        2.9739334384       19.2227690579
  H         4.0237019478        2.8535203612       17.4604755501
  C         2.7961321907        1.3406710032       18.3760512740
  H        13.5846973965        2.8766261226       20.5550542887
  H        14.5611693953        1.5586772060       20.2255529259
  C        14.5741660158        2.3187404404       22.2700229040
  S        10.3350688576        9.8679858710       17.6687043827
  N        10.7547096022        9.4786550748       16.1829409108
  C        10.6715808119        7.4221699634       14.7722222417
  H        10.5181730357        5.3203697865       13.9128567827
  C         4.1139385894        1.0250735720       36.2187905281
  N         4.3258789013       -0.3123376804       36.3492874545
  O         5.0847372342       -2.0815388136       35.0886797054
  H         1.9268788202        1.9935419217       18.1494089019
  H         2.5243193334        1.0534426501       19.4360970693
  C         2.7690925508        0.1862648919       17.3337879403
  H        15.2766073797        3.1563987699       22.0147223441
  H        13.8710957827        2.8307615720       22.8883850143
  C        15.1147106829        1.0897156063       23.0230381815
  C        10.9315787055        8.1592164494       13.5695316883
  S         3.6115167596        2.0100616178       37.6097765341
  C         4.1753196444       -1.0845141707       37.5985300672
  H         1.7466787328        0.1129454138       16.9041166746
  H         3.4368111429        0.3314318434       16.5552273897
  C         3.2570331825       -1.1743019240       18.0506863590
  H        15.0222068909        0.2365106848       22.4573084559
  H        14.4530049104        0.9700435378       23.8658225758
  C        16.6455535665        1.2545036578       23.4350845458
  H        10.7669723384        9.2188824402       13.7535975398
  C        11.4702861054        7.7829825112       12.3483415390
  H         3.1668514933       -0.9054806862       37.9910589644
  H         4.1975719330       -2.1514247080       37.4827490116
  C         5.4174164115       -0.7290998661       38.4845933857
  H         3.9585107358       -0.9514160107       18.8410539927
  H         3.7991298478       -1.8294600039       17.3816807555
  C         2.0887594642       -1.8700185761       18.7278387089
  H        16.8140915744        2.1933735973       23.9427262641
  H        16.9020412421        0.4919563778       24.1357951716
  C        17.5790579377        1.1162548486       22.1809881206
  S        12.0504070742        6.2594636320       11.8777568576
  C        11.6199524065        8.7940130786       11.3373549780
  H         5.1093095075       -0.0019718575       39.2898903894
  H         5.8623698652       -1.4724919335       39.1558483700
  H         6.0990546229       -0.3740586492       37.7515222268
  H         1.9715335232       -2.9047125325       18.3559766061
  H         1.1792330552       -1.2376162383       18.5119234514
  H         2.1552418711       -1.8434622176       19.8420167894
  H        17.5318651325        2.0466576906       21.5914223804
  H        17.2435396444        0.2332009628       21.6274068572
  H        18.6021872626        1.0469171142       22.3717613160
  C        12.4868257321        6.9861287456       10.3409243612
  N        12.2563180099        8.2806640235       10.2422025396
  O        11.4072895823        9.9803093763       11.4829967155
  S        13.4702073765        6.1727390136        9.0551197130
  C        12.5124743610        9.1335132616        9.1804881504
  H        12.7275053234       10.0988656665        9.5368614846
  H        13.4780592177        8.9036409818        8.5919233887
  C        11.2493008176        9.2324816494        8.3220983622
  H        11.2930992563       10.1197177212        7.5968954028
  H        11.2146511651        8.3411277889        7.7208291375
  H        10.3180514764        9.2932613574        8.8539008212
  H        21.2051200748       11.3569633568        3.1616246068
  C        21.7746694590       10.4774252565        3.5113580895
  H        21.0726422922        9.6447068923        3.7798683324
  C        22.6865607182       10.7145891876        4.6994403811
  C        22.5640832793       10.1894180615        2.2624145423
  C        21.8328803170       10.8904999677        5.9531343201
  H        23.3219708143        9.8058520252        4.9353645355
  H        23.2589323021       11.6320711106        4.6351730484
  H        23.2307065035       11.0972996928        2.2606259080
  H        21.9500507935       10.1553796967        1.3638485138
  H        23.2398598988        9.3411386222        2.4508047167
  C        21.2843116096        9.6205608727        6.5511165548
  H        22.4597339650       11.4204345003        6.7613802301
  H        21.0425469588       11.5131086445        5.6506137539
  C        20.7220444050        9.8056588442        7.9291720133
  H        22.0461443832        8.9092007383        6.5247848037
  H        20.5915612356        9.1805453655        5.9396260262
  C        19.3658144038       10.6132059653        7.9008776724
  H        21.3852981623       10.4201448615        8.5309606161
  H        20.4401821029        8.9014950935        8.4564664496
  C        18.1811303843        9.8156191722        7.2373059232
  H        19.2046093453       10.8495247501        8.9622183173
  H        19.6431553733       11.5399433805        7.4147802736
  C        16.8323224591       10.6340344930        7.1916593892
  H        17.9471401207        8.8780119442        7.7468822019
  H        18.4246971284        9.4366671077        6.3284372182
  C        17.0731010476       11.9952117619        6.5217225229
  C        16.3404826628       11.3713403274        8.4459863662
  C        15.7168593931        9.7905765264        6.5379786811
  C        16.6951158386       13.0654583090        7.2783949247
  C        17.4977072588       12.4644048959        5.2810903001
  C        16.2146876435       12.6592182329        8.5315294714
  C        15.9463629188       10.6253079710        9.5733657732
  H        16.1769069722        9.4481592692        5.5935487619
  H        15.4038829468        8.8526809953        7.0056181888
  C        14.4866716067       10.6519908717        6.2722252760
  S        17.0969292292       14.6643570507        6.5750652823
  C        17.5321885621       13.8190021019        5.1502740648
  H        17.6763093902       11.8056663692        4.4848095261
  C        15.7603023892       13.2598893288        9.6568818775
  H        16.1610125930        9.5245126031        9.6322333476
  C        15.4590078717       11.1896988523       10.6933682814
  H        14.7069843595       11.5779731329        5.7965798154
  H        13.9236603691       10.7335734287        7.1726107987
  C        13.4299230162       10.0932709712        5.2985518623
  C        17.9143400519       14.5364561192        3.8993352900
  C        15.3263465525       12.5333154884       10.7383961030
  H        15.7445908536       14.3038043306        9.6462640582
  C        15.0969829021       10.8251684079       11.9356131216
  H        12.5560014091       10.7203974850        5.3092898099
  H        13.1475115511        9.1142760132        5.7317082201
  C        14.0209317496        9.7729116972        3.9559937379
  C        18.0333015063       15.8921721240        3.7188643065
  C        18.4767675746       13.7341147313        2.7425565732
  C        14.9244965626       13.3272562593       12.0057773854
  C        14.7230476301       11.9128415087       12.6948845727
  S        14.7726661666        9.3487837919       12.7489748834
  H        14.7948812555        9.0479244324        3.8623491292
  H        14.6390764991       10.6301061965        3.7678265057
  C        12.9440492110        9.8076727315        2.8291736537
  N        17.7871359837       16.8600487688        4.7351283821
  C        18.2665212181       16.4856176075        2.5073219231
  C        18.7096956489       14.3530668536        1.5023870957
  H        18.5605818193       12.6659997868        2.7690480009
  C        13.6408410526       14.1053559231       11.6467824354
  C        16.1030991375       14.1572017218       12.5027553604
  C        14.3274130372       11.5185415747       14.0179918542
  C        14.3072693418       10.1825515408       14.1414956937
  H        12.2770581289        8.9719126487        3.0307354493
  H        12.3171880760       10.6885559997        2.8980570032
  C        13.5212431484        9.7588767345        1.3958740320
  S        17.8036577681       18.3406821587        4.0313924474
  N        18.1837845988       17.8886226179        2.5189750489
  C        18.6071769062       15.8408058020        1.3465970625
  H        18.9948024854       13.7719094777        0.6568327584
  H        13.8295487288       14.6555409198       10.7559176760
  H        13.3285429683       14.7243649454       12.4436938629
  C        12.5150453592       13.2325750658       11.3055528195
  H        16.3191538714       14.8668831911       11.6960006841
  H        15.7196391866       14.7684072525       13.3521287138
  C        17.3305091326       13.2358662061       12.8431241774
  H        14.1511723858       12.3021866034       14.7488651176
  C        14.0953566202        9.3633124595       15.4332838506
  H        13.7409918727        8.7237109451        1.0982341898
  H        14.4279076190       10.3716165995        1.3138555153
  C        12.5396399405       10.2766041151        0.3926450798
  C        18.7771866477       16.5776648719        0.1337456799
  H        12.7619627071       12.7227584441       10.3846515422
  H        12.2562658719       12.5440038179       12.0280389844
  C        11.2302188384       14.0127124798       11.0941819826
  H        17.6939693207       12.6206000206       12.0232782636
  H        17.0823498020       12.5105467249       13.6479536779
  C        18.4428069804       14.1626326783       13.3584723876
  C        13.9731276172        7.9722580060       15.5423154331
  C        14.0268646614       10.1357242187       16.6800493474
  H        11.7456903998        9.4320384596        0.1990955419
  H        11.9153093522       11.1123070298        0.7110643114
  C        13.1384685406       10.6857868145       -0.9266117970
  H        18.5460913748       17.6122247379        0.1392220383
  C        19.0372534513       16.1934983420       -1.1739929449
  H        11.4073856684       14.6464045763       10.2358448156
  H        11.0282989127       14.7089434972       11.8933484099
  C        10.0135999342       13.1325575964       10.8165530320
  H        19.0242392895       14.5971145493       12.5689173414
  H        18.0159265722       14.9540947873       13.9786022504
  C        19.4734307119       13.5278492165       14.2009517882
  N        14.1034503691        7.0245802729       14.4850942567
  C        13.7426217577        7.3008746671       16.7216232487
  C        13.6999417036        9.5049597288       17.9031611868
  H        14.0806167351       11.2368363306       16.6821770142
  H        12.4040365426       10.8854350207       -1.6748623658
  H        13.8029029315        9.8673494316       -1.2406983926
  H        13.7210113732       11.5549540134       -0.7693011172
  S        19.3879971047       14.6359076858       -1.6178496914
  C        18.9705919975       17.1770152905       -2.2360413864
  H        10.3953121891       12.1228113982       10.8327866332
  H         9.2565186775       13.2751524550       11.5894410466
  C         9.4467826257       13.1597447676        9.4155612732
  H        19.5259946561       12.4729482425       13.8698367700
  H        19.1703292614       13.4092024983       15.2178528941
  C        20.8270406952       14.2434715105       14.1828551386
  S        13.8365230013        5.5028645344       15.0286005136
  N        13.7268763970        5.9164941243       16.5856779190
  C        13.6226428004        7.9796300820       17.9434472576
  H        13.5189199928       10.1342921817       18.7896127530
  C        19.4192237108       15.2898853550       -3.2227227978
  N        19.2310111130       16.6228686885       -3.3858901947
  O        18.9040827723       18.3565360089       -1.9373379383
  H         9.7542905453       14.0517919436        8.8658371294
  H         9.9581542491       12.3670234466        8.8071935333
  C         7.9427779881       12.8969441311        9.5837546507
  H        21.5323421715       13.6884400590       14.8053779045
  H        21.2852094751       14.2220055314       13.2339287273
  C        20.6820897742       15.6671639916       14.7345071658
  C        13.2660435358        7.2256539775       19.1133317294
  S        19.7908209789       14.4211041672       -4.7502302073
  C        19.2759940575       17.4106259963       -4.6179741088
  H         7.5723127441       12.4140519414        8.6581785803
  H         7.6783983545       12.1442902014       10.3879777029
  C         7.1362985742       14.1407403528        9.9482242690
  H        20.2380392160       15.6375320537       15.7187564014
  H        20.1104638326       16.3247152816       14.0050671325
  C        22.0996895824       16.3681561663       14.7235840648
  H        13.4250871565        6.1512757696       19.0720388457
  C        12.7056658880        7.5306054602       20.3007434811
  H        20.1420912158       17.1006718325       -5.2126954169
  H        19.2902076125       18.4283574107       -4.4068654722
  C        18.0529265831       17.2178148600       -5.4939789712
  H         7.7087670417       15.0256867074        9.9804765403
  H         6.6200454185       13.9710224933       10.9020063613
  C         5.9667490859       14.3525514727        8.9846970883
  H        22.3825034457       16.5443094192       15.7444859579
  H        22.8391005095       15.7161700465       14.3756052236
  C        22.0091809001       17.7249642184       14.0983045089
  S        12.5373134887        9.0908755040       20.9688695764
  C        12.4163716824        6.4275490398       21.2115203490
  H        17.1607582122       17.4852860943       -5.0013304450
  H        17.9974581606       16.2777653118       -5.9912578647
  H        18.1320087639       17.8957964267       -6.2884873472
  H         6.2800474369       14.6403127125        7.9553374722
  H         5.3844081510       13.4169336833        9.0438797958
  H         5.2794279469       15.0986507241        9.3131981154
  H        21.4339057972       18.3025662513       14.7896379423
  H        22.9862947643       18.2654082364       14.0832480661
  H        21.6861379992       17.6299943933       13.0648631339
  C        12.0340638258        8.2541300911       22.4088820376
  N        11.9316883961        6.9344000227       22.3022917215
  O        12.5583361887        5.2285990043       20.9985819778
  S        11.7465692034        9.0665586985       24.0042327592
  C        11.6742224020        5.9643754525       23.3621127529
  H        11.1081621002        5.0131920065       23.1625324419
  H        10.9645592439        6.4996623663       23.9424005481
  C        12.9559584953        5.7719905896       24.1524522364
  H        12.7722736783        4.9680064020       24.8972010665
  H        13.1375074787        6.6810371565       24.6804482105
  H        13.8119085222        5.5024209423       23.4963500829
