352
 i =    82500, time =    82500.000, E =        25.1355207299
  H        10.3430778914        7.0508081663       31.8275662207
  C        11.3799903857        6.6549461144       32.0047221868
  H        11.8376003624        7.5988503199       32.3496758193
  C        12.1254226603        6.1588910220       30.7833901278
  C        11.4279910978        5.6991678450       33.2083723602
  C        11.1740684837        5.2471566915       30.0127854017
  H        12.4821337745        7.0076057144       30.2481243826
  H        12.9630401766        5.5798467546       31.2067352410
  H        12.3743406215        5.6368410615       33.6955663075
  H        10.6126652856        5.9723023270       33.8921542745
  H        11.2462266880        4.6686964399       32.8871154105
  C        10.3468157553        6.0114692001       29.0038874938
  H        10.6121057742        4.7528556478       30.8066121498
  H        11.8029937581        4.4596634087       29.6497610271
  C        10.9786222207        5.8443159407       27.5238189656
  H         9.3141706591        5.5497957864       29.0383565396
  H        10.2252260206        6.9811380689       29.3678242096
  C        10.0290140235        5.1228767849       26.6267171068
  H        11.9204118041        5.2746062362       27.5533968522
  H        11.2406712419        6.8469575463       27.2193524939
  C         8.8351120354        5.9136885323       26.1102647201
  H        10.6831329764        4.8135473788       25.8267599348
  H         9.8109857421        4.1994317399       27.1068079965
  C         7.7082034140        5.1035962342       25.2976454244
  H         8.3576788093        6.5147483931       26.8850116585
  H         9.3849342695        6.6387803443       25.5146997205
  C         7.3438348022        3.7080544718       25.9653478129
  C         8.1691511553        4.3802085526       24.0702694706
  C         6.4920312825        5.9683064529       24.8736656276
  C         7.6525067946        2.6059294207       25.1241891893
  C         6.7288385528        3.3007297352       27.1690039312
  C         8.1747327125        3.0991651416       23.9510391603
  C         8.7151254194        5.1617378196       23.0523573195
  H         5.9155794708        5.5605572426       24.0522973316
  H         6.9387595159        6.8621097468       24.4188388488
  C         5.4324482994        6.4380946723       25.9184462860
  S         7.1675786017        1.0735417390       25.8387128573
  C         6.5656565776        1.9225330336       27.2435232960
  H         6.4593795211        4.0943619404       27.9307700281
  C         8.6478182146        2.5732277886       22.7644261262
  H         8.7886140727        6.2282879744       23.1812589759
  C         8.9677132643        4.6165530369       21.8740060503
  H         5.7230622455        6.1125690815       26.9104083179
  H         5.3950918208        7.5298016409       26.0439018817
  C         4.0082103319        5.9339998458       25.7423479086
  C         6.1644333423        1.2150318618       28.5243506246
  C         8.9955859449        3.3040229183       21.6730646457
  H         8.4814968287        1.4964154574       22.7626037720
  C         9.3964868911        5.1181998216       20.6755850070
  H         4.1420126860        4.8849549298       25.5389747750
  H         3.5038619135        6.3139319099       24.8479349477
  C         3.0611194471        6.0353685147       26.9759207699
  C         5.9803902504       -0.1505668545       28.7553346298
  C         5.6828995307        2.0786524844       29.6602126671
  C         9.4009381838        2.6214470316       20.4209696186
  C         9.6587231553        4.0484929959       19.7861094869
  S         9.7660142422        6.6176898257       19.8556411789
  H         2.1949105385        6.6865361480       26.6478217954
  H         3.4677412561        6.6124401192       27.7990270570
  C         2.3409880319        4.6514856927       27.2721702732
  N         6.4287559018       -1.1223908080       27.7964566740
  C         5.7138848466       -0.7403548370       29.9745158070
  C         5.2722577276        1.4833032334       30.8385406721
  H         5.7117929386        3.0994733317       29.6248047010
  C         8.1584239268        1.8385784717       19.7337241786
  C        10.6399572476        1.7461918987       20.5829202750
  C        10.0269444971        4.4440489356       18.4650048755
  C         9.9849386745        5.8235034072       18.3497113669
  H         1.7764964304        4.2504692103       26.4093560939
  H         3.2207522132        3.9726764980       27.5684395603
  C         1.3493417637        4.8219182112       28.4027009708
  S         6.4740615050       -2.6100417362       28.4697558987
  N         5.9392335542       -2.1483859325       29.9740183348
  C         5.4609732945        0.0250798351       31.1076048889
  H         4.8999863830        2.1413843445       31.5699386328
  H         7.7086592280        1.0067395548       20.3587260869
  H         8.4881121226        1.4742825639       18.7304808212
  C         6.9295481940        2.8083363204       19.5008635756
  H        10.7578798875        1.1961024218       19.6478019708
  H        10.3986877590        0.9853637836       21.3143694792
  C        11.8419761923        2.5690818626       20.9413077322
  H        10.1649703134        3.6807026208       17.7143126088
  C        10.2167252269        6.5623729288       17.0888257767
  H         1.0743717114        3.7859409744       28.7074073699
  H         0.4924300493        5.3129009231       27.9991982345
  C         1.9582282029        5.5550733550       29.6066492764
  C         5.2043093760       -0.6411935273       32.3322096483
  H         7.1030823118        3.4404128679       18.5976485535
  H         6.6994343899        3.4842373577       20.3509430152
  C         5.5482557071        2.1217228668       19.2843778777
  H        11.6936342438        3.0730947640       21.8431463377
  H        12.0275742553        3.3055956442       20.0918116308
  C        13.0934157959        1.6867426075       21.2518324425
  C        10.4700336670        7.9332287119       16.9532654659
  C        10.4202995625        5.7896545948       15.8197282823
  H         1.8953415423        6.6703797303       29.5254250705
  H         1.3320420088        5.3904635044       30.4899952838
  C         3.3241151305        5.1809697022       30.0803785524
  H         5.5713856307       -1.6375731660       32.3588112260
  C         4.8075216170       -0.2136732417       33.5996320203
  H         4.7590059848        2.7896251220       19.5235186775
  H         5.4187533015        1.2938825280       19.9803239683
  C         5.3650844527        1.6372342019       17.8215496902
  H        12.8021564889        0.8590853673       21.8467872013
  H        13.5893616641        1.2709762785       20.4043883244
  C        14.1016573515        2.5489281945       21.9983933292
  N        10.4394590068        8.8458639095       18.0521460373
  C        10.8041077025        8.5451550515       15.7890785820
  C        10.8376682892        6.4010213583       14.6591614891
  H        10.3146651877        4.7290724533       15.9858578257
  H         3.3811623529        4.0876851947       30.0367228132
  H         4.2222145206        5.5977156384       29.6116021832
  H         3.5479363613        5.4341912054       31.1667591484
  S         4.5210419493        1.4633182240       34.1266293055
  C         4.6064387672       -1.2503290814       34.6280370549
  H         5.5824068073        2.4578078167       17.1249558490
  H         6.1048257012        0.9468154008       17.4987432869
  C         3.9754961524        1.1061430734       17.6208727967
  H        13.6356315254        2.8657874594       22.9972940354
  H        14.1786189141        3.5078963343       21.3936598250
  C        15.4512312190        1.8847378225       22.2488540001
  S        10.4969172096       10.3782591749       17.4707075080
  N        10.9592642704        9.9638105717       15.9259860411
  C        10.9037425652        7.8848935829       14.5389974820
  H        10.9141679162        5.7509939212       13.7894008402
  C         4.1132030992        0.6941739653       35.6710794505
  N         4.2467989704       -0.6495268923       35.7697138574
  O         4.7144526283       -2.4801000518       34.4320941063
  H         3.8007446476        1.0122821668       16.5443131242
  H         3.1911481388        1.9671159867       17.8384761441
  C         3.7285816503       -0.1663364811       18.3480331707
  H        15.2674394975        0.8391316971       22.4098892835
  H        15.9963618999        1.9059912083       21.3078303339
  C        16.3165591598        2.5834186828       23.3114235345
  C        11.3175946682        8.7057786747       13.4249357518
  S         3.8473889457        1.5799336569       37.1655694368
  C         4.1902307161       -1.3754936407       37.0195350594
  H         4.5346453633       -0.8618177252       18.1703546043
  H         3.7630337942        0.0603976470       19.3401585430
  C         2.4127021151       -0.9618261746       18.0458679941
  H        15.8760694841        2.4498280037       24.2710246432
  H        16.1959237900        3.5923621746       23.1425037442
  C        17.6964914122        2.0354101208       23.3016268944
  H        11.0154259354        9.7172151283       13.5587153407
  C        11.9005771343        8.3173751264       12.2408441834
  H         3.4542065214       -0.8905376888       37.5958191174
  H         3.7289519172       -2.3497819853       36.8192199422
  C         5.4756768835       -1.6109766394       37.7381166488
  H         1.6860120092       -0.3030472952       18.3869276016
  H         2.2346470435       -1.8558428689       18.6274054705
  C         2.2787014994       -1.4316518467       16.6417318703
  H        18.1898647954        2.3657059729       24.2125845651
  H        17.6863874771        0.9188990808       23.1279592062
  C        18.6157019844        2.4304044724       22.1907820269
  S        12.3324937832        6.7551165834       11.8216437187
  C        12.1038778095        9.4258856397       11.2526399139
  H         6.3930054818       -1.6236536499       37.0592787185
  H         5.6968403279       -0.8149307567       38.3978953110
  H         5.5409401819       -2.3899027074       38.4795246448
  H         1.7245637416       -2.3759285045       16.5107634410
  H         3.2662935547       -1.7390022081       16.1725968722
  H         1.7476324075       -0.7236192523       16.0046500574
  H        19.4089768576        3.0079209907       22.5231423631
  H        18.1054635697        3.1557496780       21.5097703383
  H        19.0074867492        1.5959265579       21.6868754705
  C        12.6309168322        7.4945499376       10.1851105802
  N        12.5775034645        8.8544370179       10.0955167570
  O        11.6988165024       10.5784594995       11.4867789529
  S        13.0561486065        6.5163167085        8.7698232956
  C        12.7233029392        9.6558809720        8.8784619646
  H        12.9187438379       10.6381790009        9.2419793894
  H        13.5522129970        9.3657621742        8.2241209237
  C        11.4561968636        9.5590049902        8.0349041610
  H        10.6396490727        9.3545739089        8.6350413534
  H        11.3704896119       10.4775065106        7.5231498359
  H        11.4913030942        8.8995450750        7.1717998640
  H        20.9759641693       11.1866487592        3.6713463155
  C        21.6221084884       10.4389043057        3.2455131621
  H        21.2353866368        9.4314813598        3.3645457705
  C        22.9671504078       10.5384224674        3.9787027379
  C        21.8046877493       10.6789535487        1.7631667771
  C        22.8761796696       10.6411470951        5.5160629999
  H        23.4788090806        9.6168489892        3.7351388666
  H        23.5750919715       11.2987184112        3.5320692762
  H        22.1738851115       11.7089465513        1.6705216707
  H        20.8412573963       10.5537835171        1.1576426055
  H        22.5319865585        9.9403101958        1.3061831484
  C        22.1417541447        9.4735175731        6.2372430669
  H        23.8932603696       10.5418082610        5.8924849930
  H        22.4629823703       11.5564603235        5.9441470675
  C        20.9581238901        9.7097703176        7.1490243271
  H        22.9243068376        8.9170843819        6.7809556855
  H        21.6891397782        8.8294609086        5.5316003726
  C        19.5783624995        9.5391258677        6.5397609946
  H        21.0985102313       10.6586261234        7.5044838844
  H        21.0673787029        9.1085613900        8.0604066209
  C        18.4796137097        9.8896320754        7.5130514409
  H        19.5815705127       10.2412844849        5.8188213721
  H        19.3599020483        8.5491349630        6.0539420424
  C        17.2603746162       10.7798683465        7.0681576104
  H        18.9980897187       10.4348648936        8.3250405268
  H        18.1259751099        9.1155737646        8.1475108978
  C        17.6357911437       12.1274338073        6.3605969795
  C        16.8310603809       11.5376743792        8.3075603725
  C        16.1549408149       10.0193795059        6.2923353275
  C        17.2848248004       13.2324378105        7.1063018031
  C        18.0164792679       12.5110038809        5.1312726447
  C        16.9021782335       12.8692131986        8.3887702939
  C        16.3597138639       10.8820693588        9.4528652505
  H        16.6392636306        9.6569599509        5.4615691929
  H        15.7938399354        9.1737992446        6.9339063510
  C        14.9311355375       10.8462212457        5.9090832558
  S        17.5759588790       14.7696650961        6.3152061821
  C        18.1402895442       13.8765540157        4.8760258171
  H        18.3259291997       11.7137555035        4.4853983315
  C        16.6023613165       13.4812885079        9.5970509908
  H        16.1007382671        9.8111604433        9.4551105084
  C        15.9694249883       11.4879136352       10.5649407477
  H        15.2182330587       11.6750310767        5.2300765929
  H        14.5344820921       11.4324008509        6.7576191704
  C        13.6921393122       10.1620357261        5.2595444923
  C        18.5616084829       14.4334494447        3.5898272082
  C        16.0381588543       12.8355499681       10.6868923264
  H        16.7683850898       14.5252259035        9.6858299011
  C        15.5024509318       11.1526339222       11.7771667102
  H        12.8827424076       10.8529971552        5.2286146227
  H        13.3574833098        9.3201013780        5.9353726644
  C        14.0424712253        9.7798708222        3.8151591033
  C        18.4804561339       15.7559903402        3.2584022237
  C        18.8288126336       13.5034359694        2.4193246724
  C        15.5969389271       13.5750777665       11.8860569009
  C        15.2648955934       12.2923157676       12.6217880907
  S        15.1401582786        9.6443792234       12.4335015580
  H        14.6799400814        8.8711894363        3.7770553421
  H        14.7155542924       10.4699797977        3.3152241868
  C        12.7113296362        9.5267273701        3.0998429675
  N        18.2918369786       16.7740934914        4.2256526035
  C        18.7215363470       16.3894937281        2.0179249375
  C        19.1028944691       14.1283089619        1.1284435536
  H        18.8720106149       12.4568465767        2.6372502500
  C        14.3805887020       14.4161851034       11.5618194325
  C        16.7819830719       14.3207719678       12.6411776514
  C        14.8677909666       11.8294168184       13.8642725722
  C        14.7983972703       10.4399880417       13.9512152275
  H        12.0813083705        8.8295338633        3.6523639655
  H        12.0989056219       10.4243928990        3.0980694253
  C        12.8373031007        9.1148006625        1.6395183651
  S        18.3068822159       18.1967863823        3.4779299875
  N        18.5624243835       17.7920777640        1.9403279719
  C        19.1309126205       15.6045357801        0.9107204957
  H        19.3730846630       13.4877921524        0.3289107334
  H        14.6037776449       15.2043120015       10.8594167558
  H        14.1694365618       14.9867138741       12.4738531497
  C        13.1495192608       13.6195469659       11.0656300571
  H        17.2707600028       14.9063233428       11.8843046405
  H        16.3675531744       15.0610701874       13.3230955530
  C        17.8590852251       13.3516884569       13.2481249874
  H        14.8454035629       12.4197433056       14.7634871408
  C        14.4586787820        9.6397525433       15.2282583856
  H        12.0537208904        8.3997374913        1.4182671104
  H        13.7552511399        8.5968408171        1.5980182724
  C        12.8717371600       10.3101942663        0.7540839268
  C        19.3040943818       16.3077245447       -0.4164161941
  H        13.2739193431       13.0867893748       10.1215369341
  H        12.8534004965       12.8633523253       11.8441552789
  C        11.8455720966       14.4238762210       10.8367163761
  H        18.0517659677       12.5375313800       12.5453646019
  H        17.4504044366       12.7987511262       14.1418313926
  C        19.1680331760       14.0353675175       13.5155457450
  C        14.2877240664        8.2556978947       15.2808636961
  C        14.2976829250       10.3886347312       16.5105910891
  H        11.9200247989       10.7303910637        0.5511929018
  H        13.4611210788       11.0555954412        1.2327233761
  C        13.5259753465        9.9962137932       -0.5500675050
  H        19.2559307771       17.3618997067       -0.3793922931
  C        19.5518354332       15.8788421510       -1.6575064168
  H        11.8010776282       14.8472155029        9.8542388616
  H        11.7999596170       15.2419790948       11.6013495291
  C        10.6839518673       13.4378331570       10.8021421197
  H        19.5449245640       14.3749042985       12.5654565011
  H        18.9081535060       14.8531606105       14.1010626146
  C        20.1384795727       13.2213615829       14.3752717446
  N        14.5951938509        7.3068145848       14.3360440196
  C        13.9363805422        7.6393627515       16.4585184645
  C        13.8690131581        9.8009266052       17.6995432230
  H        14.6222439700       11.4460069609       16.5657125083
  H        14.4194684386        9.4911616249       -0.3101029523
  H        13.7295668542       10.9342099056       -1.1327555495
  H        13.0788006702        9.1998483691       -1.1643118593
  S        19.9007933708       14.3101016291       -2.1733746611
  C        19.6290252484       16.9430584759       -2.6762143907
  H        10.8330504437       12.6630459369       10.0730837028
  H        10.7302917745       12.9757318381       11.7746738174
  C         9.3126372808       14.0534169860       10.7250638446
  H        20.2729664710       12.2322997275       14.0308577908
  H        19.8084309459       13.0384955261       15.3811057459
  C        21.5304177715       13.8782253615       14.4914011885
  S        14.3035359180        5.7695824070       14.8428371166
  N        13.9764985742        6.2343965013       16.3793110925
  C        13.7175247145        8.2973098261       17.7217116169
  H        13.8636658655       10.4695117335       18.5454995095
  C        20.1414993091       14.9855003576       -3.7699403319
  N        19.9445376176       16.3436473735       -3.8300661048
  O        19.4343906011       18.1261764467       -2.5059440302
  H         8.7065778315       13.5930821388       11.5124517371
  H         9.3196401217       15.1588205195       10.7243643373
  C         8.7688071918       13.5162978124        9.4281168048
  H        22.2926645203       13.2800297522       14.9315815796
  H        21.9650135864       13.9800704461       13.5100092215
  C        21.5540355592       15.1674573249       15.2501291611
  C        13.3459395308        7.6042542352       18.9245728953
  S        20.9095030938       14.2788311950       -5.1624353919
  C        19.7188034300       17.1244595223       -5.0494589065
  H         9.5844885517       13.7629048279        8.7335157159
  H         8.8541492191       12.4269707511        9.6047969405
  C         7.3478397851       14.0611920719        9.0448244863
  H        22.3680164474       15.0191295513       15.8854386161
  H        20.6123369959       15.3173223211       15.7375771132
  C        21.8419464118       16.4206441209       14.3533201856
  H        13.0111198010        6.6044732200       18.6957439716
  C        12.9251031302        7.8981552022       20.2385464927
  H        20.4644115554       16.6887339992       -5.8116625125
  H        20.0407836046       18.0847415355       -4.8398327788
  C        18.2378493826       17.1463369122       -5.3816579406
  H         6.9494068253       13.5283697973        8.1983439108
  H         7.2459763598       15.0993020365        8.7944168287
  C         6.3630204576       13.7950256143       10.1760578186
  H        22.3364115051       16.3361544385       13.3436562622
  H        20.9260419416       16.9921310802       14.0987292012
  C        22.7286868503       17.3819373690       15.1672449554
  S        12.7421154260        9.4776930472       20.8517884606
  C        12.6064891384        6.8009119280       21.1607152021
  H        18.1134219464       17.7629755891       -6.2646129699
  H        17.5904924006       17.6109292336       -4.5475093604
  H        17.8511304105       16.1251858601       -5.5410873896
  H         5.3841966451       13.9657704781        9.6841436340
  H         6.4450208550       12.7957451252       10.4980669860
  H         6.5765227946       14.5355702542       10.9815221208
  H        23.6805987012       16.8821705058       15.3295769601
  H        22.8824823970       18.3082248072       14.6611326020
  H        22.3141550483       17.5914591322       16.1275393653
  C        12.1185876487        8.7199559089       22.2293723127
  N        12.0801273894        7.3618172899       22.2353840730
  O        12.7795908304        5.6051051671       20.8629134315
  S        11.4198487025        9.5495680235       23.6440334225
  C        11.7419740006        6.5685940232       23.4161120569
  H        11.4866690243        5.5091841983       23.1797045828
  H        10.8070536877        6.9810452887       23.8838910585
  C        12.7880641018        6.7665329572       24.5126695036
  H        13.2999480245        5.8869864965       24.8048476081
  H        12.2594196989        7.0642666604       25.4832546389
  H        13.4327144199        7.5759344542       24.2380662770
