352
 i =    20100, time =    20100.000, E =        25.2266678367
  H        12.2443843169        7.0617186323       32.2809087414
  C        11.6506801433        6.1264440920       32.3575862406
  H        12.4113906255        5.2865358498       32.2966052091
  C        10.6677388097        6.0196846642       31.1544038487
  C        10.9589464486        5.9156592625       33.6254828980
  C        11.3929003502        5.8635200168       29.8382280970
  H        10.0280366416        5.1666500751       31.3589927619
  H        10.1209213939        6.9779569122       31.2441918449
  H        10.6268825454        6.9015814739       33.8631120875
  H        10.3719519059        5.0097956603       33.6742777155
  H        11.6144640673        5.8160977126       34.4353310400
  C        10.4379920825        6.3980004604       28.8256614427
  H        11.6044786192        4.8270705942       29.6503188608
  H        12.3455410012        6.3935764041       29.7535808405
  C        10.9029514212        6.1497986463       27.4001680195
  H         9.4447549106        6.0502738831       28.9463049559
  H        10.3182888737        7.5052792167       28.9560577809
  C         9.9226242131        5.5374838151       26.4005631693
  H        11.7550739709        5.5020344114       27.4172302879
  H        11.3371874187        7.0915261259       26.9556126166
  C         8.7404114140        6.3891037112       26.0939236737
  H        10.4110373085        5.3963298549       25.4519660447
  H         9.6675275541        4.5347639493       26.6762973415
  C         7.6725537223        5.6191811591       25.3163913098
  H         8.1641968946        6.6747120441       27.0207407100
  H         9.0842605879        7.2522241034       25.5135358722
  C         7.2221965369        4.2824267379       26.0146182925
  C         8.0315650760        4.8402590009       24.0970346172
  C         6.3804597808        6.4753369327       25.1921660208
  C         7.3225871936        3.1842610973       25.2160279343
  C         6.7615221883        3.9762958981       27.2721132372
  C         7.9213871315        3.4820805164       24.0481624541
  C         8.4053731517        5.4491128268       22.9910456372
  H         6.5919053728        7.4343846003       24.7388929206
  H         6.0655871528        6.8370524485       26.1443962059
  C         5.1303922485        5.7567285272       24.6199208151
  S         6.9013887403        1.6675215188       25.9702364188
  C         6.4877267646        2.6253320180       27.4194616366
  H         6.5780378313        4.7853599119       27.9929152610
  C         8.2664953540        2.7527282013       22.9108450384
  H         8.3818150988        6.5365716999       22.8472516772
  C         8.6847610850        4.7650798913       21.8302885119
  H         5.4142574180        5.5604244510       23.5599695148
  H         4.8620355852        4.7827324471       25.0995904543
  C         3.9462474510        6.6997337497       24.6162632418
  C         5.9836200292        1.8132939160       28.6283005897
  C         8.6453809293        3.4269790955       21.7178586514
  H         8.0926359512        1.6667285429       22.7996984833
  C         9.1164655968        5.1273578892       20.5717818098
  H         3.2003568993        6.3621540979       23.8928164331
  H         4.3251066377        7.7104233993       24.3118866550
  C         3.2478360983        6.8790002456       25.9332884097
  C         5.9890636942        0.3979706306       28.8337048960
  C         5.4101873673        2.6462416249       29.7208620411
  C         8.9049619281        2.6995561294       20.4176661606
  C         9.2127223004        4.0489243103       19.7274584945
  S         9.5084971021        6.5966527792       19.7972442362
  H         2.8557136549        7.8574627879       25.9875183510
  H         3.9358187163        6.9289648792       26.7459895328
  C         2.1281192280        5.8667750815       26.2396276531
  N         6.5002758922       -0.6139330980       27.9598897658
  C         5.6525810363       -0.1865589295       30.0229765047
  C         5.0215166484        2.0048002169       30.8906786339
  H         5.3355942439        3.7419171337       29.6145720906
  C         7.6730406509        1.9752479514       19.8416581128
  C        10.1658912225        1.7752833871       20.4651699710
  C         9.5639961920        4.4936812568       18.3981772732
  C         9.8082019112        5.8136958943       18.3106998841
  H         1.6355867607        5.8609764168       25.3208909904
  H         2.5673614267        4.8908290551       26.1265205663
  C         1.4658121601        5.9691396502       27.5759869895
  S         6.4597466333       -2.0565972481       28.7157181376
  N         5.6704687827       -1.5922805548       30.0669576259
  C         5.1903005919        0.5408571931       31.1625025346
  H         4.5577926369        2.5990890965       31.6889066579
  H         7.2708490189        1.2982160962       20.6246092153
  H         7.9504821399        1.3429159420       18.9550006994
  C         6.5585138291        2.9030129134       19.2555441016
  H        10.4328930092        1.2285405951       19.5896167023
  H         9.9063025578        1.0051555859       21.1452367464
  C        11.4680981117        2.4900733145       20.9985601978
  H         9.6149297815        3.7710918415       17.6046398446
  C        10.1195579116        6.6071314205       17.0795167901
  H         0.7420870793        5.1800390964       27.5892645481
  H         0.9050036280        6.9105140396       27.6292059752
  C         2.4327228887        5.9472180212       28.7231849514
  C         4.9965624382       -0.1429908935       32.4137643859
  H         6.8745000701        3.4247506858       18.3149695714
  H         6.1849844305        3.6662250617       19.9326406366
  C         5.3707424411        2.0350618370       18.6818866485
  H        11.2602423346        2.5772536371       22.0615890344
  H        11.5478292399        3.4823138013       20.5040360276
  C        12.6702070727        1.6964912420       20.6711738761
  C        10.2301720559        8.0013188677       16.9724455934
  C        10.2619625458        5.8255273387       15.7949454831
  H         3.1141579581        5.1070623308       28.5148418306
  H         3.0209039596        6.7905480096       28.6698760147
  C         1.7725769430        5.9316062528       30.1575358268
  H         5.0005134117       -1.2191347018       32.3809020487
  C         4.6973223150        0.3668731161       33.6652380690
  H         4.7087155239        1.7040452025       19.4587692736
  H         5.7927809405        1.1776205304       18.1069795567
  C         4.5013722643        2.8607586209       17.7770594822
  H        12.7247442191        0.7711377945       21.3286221675
  H        12.6012595058        1.2901717524       19.6723602330
  C        13.9174803909        2.4299515851       20.8410413057
  N        10.1070487872        8.9739496553       18.0540510329
  C        10.4423521386        8.6191200707       15.7808138961
  C        10.5435927736        6.4577842929       14.5555347072
  H        10.0306588442        4.7310048898       15.7535623039
  H         1.0506800700        6.7760390777       30.1465283562
  H         1.1197736328        5.0880830791       30.3242704433
  H         2.5204692688        6.0643310155       30.8405105208
  S         4.6241710472        2.0085079426       34.1528014630
  C         4.5386688577       -0.5603390847       34.7561191700
  H         4.5892557500        3.9795568405       18.1080318426
  H         4.9010653562        2.8074025588       16.7731695958
  C         3.0274584028        2.4191476113       17.6814435163
  H        13.9245623390        3.2989419935       20.2407518602
  H        14.7289395924        1.7599244127       20.4894694288
  C        14.1178871843        2.9575683487       22.3177462674
  S        10.1151270074       10.4108307735       17.4145319980
  N        10.4289148858       10.0085260462       15.8955040233
  C        10.5940471324        7.9565678356       14.5609169281
  H        10.5760211520        5.8582673023       13.5789948784
  C         4.2803541937        1.4055402749       35.8161839685
  N         4.2245168380        0.0679868202       35.9015100685
  O         4.6881942913       -1.8229903610       34.6663283511
  H         2.4420415947        3.1953531364       17.1118824484
  H         2.7927599980        2.5224100998       18.7358890150
  C         2.8801704800        0.9638311584       17.2428257150
  H        14.8268840377        3.8138138169       22.3293026506
  H        13.2215053986        3.4639109850       22.7802426709
  C        14.5699859176        1.8896939190       23.3047922328
  C        10.7850453093        8.7442938087       13.3849567238
  S         4.0398495688        2.3399309292       37.2745346321
  C         4.1164872130       -0.6398080601       37.1205222649
  H         2.5467163711        0.9914943068       16.1960235465
  H         3.8811112672        0.4959123409       17.2538605746
  C         1.9476609401        0.1786046543       18.1827656373
  H        14.5949629541        0.9482374334       22.6861488238
  H        13.8199009275        1.6932422514       24.0587970646
  C        15.9372373711        2.1186846868       23.8490625173
  H        10.5605985578        9.7864458595       13.5152107342
  C        11.3613049699        8.4606897848       12.1685126989
  H         3.4762184053       -0.1498178390       37.8703099950
  H         3.6290250245       -1.5713960707       36.9224077640
  C         5.4976069358       -0.9505946263       37.6427217972
  H         1.2242423791        0.8547719714       18.5624975910
  H         2.4168607771       -0.1283687944       19.0760955538
  C         1.2169663854       -0.8879251320       17.5085751819
  H        15.8196977543        3.0363717691       24.3427332316
  H        16.2671587527        1.2862053226       24.4932639551
  C        16.9127620675        2.2759822538       22.6747785177
  S        12.0105503244        6.9137306274       11.6556620462
  C        11.3847591808        9.5611138352       11.1899480382
  H         5.4141251606       -1.6454165964       38.4447342711
  H         6.2143281480       -1.4317543226       36.9162334342
  H         6.0692816276       -0.0632591058       37.9332609708
  H         0.4590615922       -0.4015199039       16.9221547735
  H         0.7055145745       -1.5077675739       18.2731760940
  H         1.8459951141       -1.5770330153       16.9262266110
  H        17.9141989760        2.3550682908       23.0451072805
  H        16.6390571059        3.2442930968       22.2133006164
  H        16.8454535950        1.4467552126       21.9870133251
  C        12.2883100398        7.7732245583       10.1810223034
  N        11.8594546987        9.0501961879       10.0426274624
  O        11.0459046096       10.6975369477       11.4585307720
  S        12.7852244877        6.8883178944        8.7151044332
  C        12.0327763043        9.9283549459        8.9696681067
  H        12.4284364993       10.8948405489        9.3083701527
  H        12.7106204971        9.5425407540        8.2487613548
  C        10.6684553918       10.1879412826        8.2766438390
  H         9.9825608055       10.5283688442        9.0011614458
  H        10.8663100683       10.9171213176        7.4969985605
  H        10.2284733985        9.3119960247        7.8845747313
  H        20.8393726974       11.7334912446        2.9815355990
  C        21.3937123187       10.7960600538        3.0308368510
  H        20.7290397902        9.9903104368        3.0739477829
  C        22.2964633642       10.8639502227        4.2945611035
  C        22.2303222339       10.4961470975        1.7841608437
  C        21.6525515751       11.0854211102        5.6679777337
  H        22.7725835557        9.8132980330        4.1704497847
  H        23.0584567931       11.5932581237        4.1519435303
  H        23.0514523681        9.8953961560        1.9984541843
  H        22.4279406207       11.3676434541        1.1338319623
  H        21.6218799994        9.8111586072        1.2350049345
  C        20.4380633692       10.2543417195        5.8499451771
  H        22.4399095893       10.7839921039        6.4052910062
  H        21.4873194525       12.1762323265        6.0306828198
  C        20.0660113790       10.0311194499        7.2930979341
  H        20.4531727688        9.3583726957        5.2610016540
  H        19.6198747717       10.8655015073        5.3618909010
  C        18.7748217219       10.7371193615        7.5999981874
  H        20.7804199698       10.4375066069        8.0316159172
  H        20.0337448980        8.9589991224        7.4147224464
  C        17.5578274463       10.0068936278        6.9886517186
  H        18.7081065513       10.6326127642        8.6565519591
  H        18.9183565457       11.7954050552        7.3533169121
  C        16.3215315970       10.8108093195        6.8223425877
  H        17.1756298757        9.1142515239        7.5447894659
  H        17.7742692664        9.5487709508        6.0795040650
  C        16.6685303908       12.1821559951        6.1049395795
  C        15.8578098649       11.6274549309        8.0046752149
  C        15.3037088643        9.9719760602        6.0331651674
  C        16.4064983701       13.3096893564        6.8576842442
  C        17.3709676954       12.5186440918        4.9567768694
  C        15.9119013715       12.9761527454        8.0984386711
  C        15.4980753636       10.9874591513        9.2048593544
  H        15.8092032662        9.6393903133        5.1249992059
  H        15.0660266329        9.0814169708        6.5815860731
  C        14.1543537342       10.8176972358        5.5058151024
  S        16.8633300556       14.7922093234        6.1129024606
  C        17.4578415125       13.9057901132        4.7442878330
  H        17.8933794307       11.7394385069        4.3388650288
  C        15.5978749755       13.6294530912        9.2953178840
  H        15.3143852804        9.9396656828        9.2167271066
  C        15.1275293750       11.6312975399       10.3628644141
  H        14.5031990217       11.6532814446        4.9457865531
  H        13.7305081892       11.4699560791        6.2817572212
  C        13.1740254313       10.0420227745        4.5914934967
  C        17.9859755091       14.4848502381        3.5533563467
  C        15.1498308993       12.9748910970       10.4684167828
  H        15.6684279120       14.6925926418        9.3233657756
  C        14.7772381820       11.2644900140       11.6029332085
  H        12.2374877039       10.3219014600        4.9557542560
  H        13.4567660537        9.0012327782        4.8069756405
  C        13.2669500741       10.2709569878        3.0802132753
  C        18.1221730682       15.8743297486        3.2735526999
  C        18.5928020026       13.5615203728        2.4957929329
  C        14.7845318769       13.6974247174       11.7464305611
  C        14.5630469455       12.3341353367       12.4802531136
  S        14.4776279203        9.7476568394       12.3896028106
  H        14.2637030913       10.6835817613        2.7655827124
  H        12.5981447902       11.1540433295        2.9385708692
  C        12.6703261082        9.2037085357        2.1533219775
  N        17.8549538719       16.8651540583        4.1587651109
  C        18.4057376280       16.4213250498        2.0620347921
  C        19.0518131659       14.2120821228        1.3379306597
  H        18.7121298475       12.4776981522        2.5423376450
  C        13.5882734523       14.5805187213       11.6850591106
  C        15.9790718424       14.3958976007       12.4035780877
  C        14.3144576763       11.9404754864       13.7915849429
  C        14.2058747832       10.5907743509       13.9326892615
  H        13.4115453519        8.4589966555        1.8598260310
  H        11.7676848035        8.7887090988        2.5800361605
  C        12.2363056403        9.8264729063        0.7197730256
  S        17.7212644575       18.3219478124        3.4895643129
  N        18.0262401165       17.7707896918        1.9859983543
  C        18.8196973197       15.6656401231        1.0047005058
  H        19.5180907070       13.6152731674        0.6751918277
  H        13.8043850209       15.2666511154       10.9109478222
  H        13.3501837492       15.0538625227       12.6509921747
  C        12.2869860025       13.7917995395       11.3455463218
  H        16.2927176339       15.2630779957       11.7764733567
  H        15.6275773288       14.8702811313       13.3095450420
  C        17.2457625561       13.4947290666       12.7725392613
  H        14.4034997722       12.7203340504       14.5004916375
  C        13.8435975898        9.9184305754       15.2060426081
  H        11.6080321592       10.6221897277        0.9705008570
  H        11.7796045484        8.9642524977        0.1215719609
  C        13.3098197353       10.4530466180       -0.2183574787
  C        19.0087671998       16.2976700966       -0.2306972267
  H        12.3753426864       13.2390615993       10.5155740583
  H        12.0489405559       13.1237448638       12.1772491749
  C        11.0255130208       14.6024173010       10.9337669240
  H        17.8252069581       13.3026939221       11.8964928294
  H        16.9542446740       12.5276513177       13.3354996954
  C        18.2300834214       14.0769373674       13.7809341093
  C        13.7507202870        8.5092637273       15.3525859850
  C        13.6621449846       10.7137910404       16.4396240095
  H        13.5951902880       11.4008320515        0.1541599815
  H        14.2697113320        9.8672269211       -0.1216905315
  C        12.9482043611       10.5337630541       -1.6936504576
  H        18.9070909629       17.3567318987       -0.1706197541
  C        19.2219888633       15.8142294208       -1.4723481902
  H        11.2727455246       15.1349790600       10.0133174780
  H        10.8114357046       15.2705377369       11.7626719868
  C         9.7725659304       13.7912479569       10.7549407146
  H        18.4737594574       15.1779894437       13.5890410429
  H        17.7984717885       13.9811371559       14.7932885975
  C        19.5520873124       13.3121664525       13.8889127314
  N        13.9559390707        7.5490920932       14.3476539890
  C        13.5421742611        7.9566840470       16.6002019544
  C        13.3186064692       10.1512497636       17.6603193110
  H        13.8831941701       11.7866606504       16.4484617195
  H        13.0235419634       11.6081712700       -2.1043378643
  H        11.8067129957       10.4153111450       -1.5660757146
  H        13.4085504752        9.8200169102       -2.3671771742
  S        19.2872911225       14.1914399894       -1.9415853517
  C        19.2298268203       16.7806053027       -2.5559656495
  H         9.9797889700       12.8114178748       10.2374022267
  H         9.3340390575       13.7293132198       11.7866944096
  C         8.6835776330       14.6026254833        9.9892985629
  H        19.6996640140       13.0167735811       12.8957429973
  H        19.2454698366       12.4388712614       14.5455371719
  C        20.6755494288       14.2922200190       14.3169019984
  S        13.7726951722        6.0359620568       15.0022574715
  N        13.6566263649        6.5640515618       16.5524989547
  C        13.2009157864        8.6528449440       17.7685414436
  H        13.2803705161       10.7420357928       18.5499126390
  C        19.7803423897       14.8340390409       -3.5238363085
  N        19.7468807963       16.1584153718       -3.6259165669
  O        19.2578123205       17.9989753419       -2.5206602526
  H         8.1628518579       15.2378282810       10.7379550979
  H         9.1255654472       15.3154748896        9.3064223448
  C         7.8717179716       13.5859385686        9.1782096468
  H        20.1345777454       15.0574018635       14.8590743082
  H        21.4892916860       13.8283580371       14.9965417733
  C        21.5279478303       14.7532158971       13.1893361371
  C        12.9667686144        7.9019406446       18.9547500139
  S        20.1173981204       13.8800712973       -4.9197663740
  C        19.9405273386       16.8917555498       -4.8334632203
  H         8.4423929615       13.3789825706        8.2596086636
  H         7.8357565281       12.7205553171        9.7688291188
  C         6.4626556556       13.9897252503        8.7717260261
  H        20.8695550814       15.0530401688       12.3683715624
  H        22.2168958375       13.9874009744       12.8833626192
  C        22.4901197366       15.9347657515       13.6126065071
  H        13.1306281917        6.7987478222       18.9227648510
  C        12.4620010214        8.1679809363       20.1940929460
  H        20.7144612592       16.5207980380       -5.4758789324
  H        20.3909975257       17.8525319770       -4.6752575233
  C        18.6300230607       17.0182120465       -5.6392542806
  H         6.1390762391       13.3207446067        7.9512759758
  H         6.4364025283       14.9229066628        8.2689841757
  C         5.6023929081       13.8600004222       10.0142501521
  H        22.8426691958       15.7331669466       14.6277976580
  H        23.3606651026       15.9005692251       12.9929163341
  C        21.9582406264       17.3217932036       13.5583158057
  S        11.7757728230        9.6822865976       20.6273474490
  C        12.5403812914        7.0133329864       21.1869590159
  H        18.1723829558       16.0737999219       -5.8319928746
  H        18.7851796114       17.6154611663       -6.4997361759
  H        17.8756575102       17.6238519085       -5.1007531637
  H         6.0557637623       13.1792593834       10.6402227930
  H         5.5448631663       14.7717474600       10.5607256956
  H         4.5918799989       13.5392363604        9.8437315516
  H        21.7569592879       17.5638676422       12.5917059926
  H        21.0489753567       17.3383033343       14.0446379830
  H        22.7443302697       17.9327238344       13.9882295300
  C        11.6767094763        8.8724919607       22.2171543144
  N        11.8884360029        7.5274588070       22.2325529241
  O        13.0455649876        5.8617451448       21.0616948287
  S        11.1008070128        9.5732375175       23.7832232595
  C        11.8472854849        6.6436729821       23.3675714785
  H        11.5128254170        5.7237723132       23.1408828292
  H        10.9982948450        6.9842005295       23.8743776460
  C        13.1978674561        6.7431362691       24.1123925637
  H        13.0523069246        6.2644744966       25.1390913630
  H        13.4188381053        7.7936917611       24.2971223479
  H        14.0425907265        6.3282651027       23.5799548077
