352
 i =    59200, time =    59200.000, E =        24.6287777731
  H        10.2690669365        4.1373506979       31.1000200422
  C        10.6714650144        5.0294466013       31.4736106201
  H         9.7888744739        5.6617644091       31.5153763661
  C        11.8137887460        5.5366579736       30.6289715997
  C        11.0947608956        4.8240358347       32.9181792651
  C        11.7657952979        5.0587270667       29.1400270974
  H        11.7335870442        6.6243165728       30.7462933679
  H        12.7775734540        5.1956169078       31.0585473333
  H        10.6299946131        3.9438958270       33.3280021925
  H        12.1658223031        4.5725387744       32.9483869063
  H        10.6857731645        5.6189964971       33.6079739751
  C        10.4511447528        5.4636740715       28.4385880153
  H        11.9043637014        3.9783479101       29.0416923959
  H        12.6948971797        5.5029915092       28.6844054054
  C        10.6437563566        5.5428849252       26.9155882799
  H         9.5844645578        4.8225944307       28.7470788686
  H        10.2579843617        6.4844878287       28.8941958025
  C         9.5861733169        4.6627670466       26.1486136795
  H        11.6080864146        5.0788243415       26.7051905472
  H        10.6762184533        6.5721992991       26.6284243272
  C         8.2272130384        5.4426859957       25.9782400493
  H         9.9803835857        4.3629392715       25.1995502391
  H         9.4561698262        3.6387198006       26.6537375421
  C         7.2442639197        4.5883225126       25.1815847759
  H         7.8824209004        5.6443454514       26.9691947941
  H         8.2300755050        6.4406943116       25.5851690145
  C         6.8319262385        3.2363602785       25.8607681098
  C         7.7797146048        3.8437135837       23.9411990629
  C         5.9752990147        5.3989756409       24.7599598348
  C         7.1459268365        2.1569084686       25.0903346835
  C         6.3753396228        2.9452774368       27.1296093404
  C         7.7172315086        2.4665032697       23.8590097136
  C         8.2199107889        4.5187271042       22.7998977441
  H         5.5288447515        4.9153771970       23.8920381860
  H         6.2342034853        6.3333812428       24.3104091071
  C         4.7683460913        5.6515881851       25.7245848818
  S         6.7350208314        0.7313336815       25.8711995926
  C         6.3079482753        1.6002120869       27.2996225173
  H         6.2466748093        3.7794559017       27.8571964773
  C         8.2689373488        1.8545460831       22.7710341802
  H         8.3254833302        5.6194342153       22.8678651541
  C         8.6585231370        3.9153484824       21.7068131228
  H         4.7989595445        4.9057446335       26.4849456163
  H         5.0153864154        6.5938056268       26.1350318399
  C         3.3718272158        5.9894203579       25.0586408373
  C         5.9336534122        0.9099552701       28.5759329011
  C         8.6883536800        2.5945588723       21.6191908453
  H         8.2917448141        0.7973051390       22.5856103318
  C         9.0617014481        4.3568985266       20.4653087913
  H         2.9344123525        5.1386859725       24.5423511560
  H         3.5544386944        6.7989811956       24.3764860556
  C         2.3332995927        6.4110316335       26.1633109448
  C         6.0671996733       -0.4869075123       28.8982147935
  C         5.3764394442        1.7287359413       29.7079513016
  C         9.1070328510        1.9086213863       20.3184557505
  C         9.3094267687        3.3127585050       19.6242508527
  S         9.3263769898        5.8877235525       19.7189377281
  H         1.5385153175        6.9661873120       25.6237168763
  H         2.9250534555        7.1035506843       26.8002730008
  C         1.6964579646        5.2797650051       26.8720177981
  N         6.3506890343       -1.5105641984       27.9883481328
  C         5.7649725935       -0.9458939989       30.1382367996
  C         5.1336063598        1.2243534755       30.9729269383
  H         5.3153608535        2.8060664757       29.5584759405
  C         7.9003083319        1.1922901125       19.6892261295
  C        10.4082701782        1.0013900222       20.4496952636
  C         9.6259906218        3.7304796490       18.2687958884
  C         9.6531907574        5.0544274819       18.2133037620
  H         0.6537438254        5.2363079303       26.4200922024
  H         2.2816600762        4.3264778734       26.5759811396
  C         1.6408629399        5.3968073765       28.4069146274
  S         6.3360534658       -2.9143596725       28.7306242435
  N         6.0075996264       -2.3864354456       30.1795834276
  C         5.3545228707       -0.1832951186       31.2760743271
  H         4.7927249902        1.8271173041       31.6902371785
  H         7.5495386864        0.4645337721       20.3916306954
  H         8.2408018786        0.6274715993       18.8635836544
  C         6.7196199733        2.0932714885       19.2951743121
  H        10.6807043705        0.5756286616       19.4309039888
  H        10.0768881124        0.0765968286       21.0355011874
  C        11.5565507205        1.7158238588       21.1643165658
  H         9.7457452911        3.0509396321       17.4562278765
  C         9.9899520192        5.9118487663       17.0258196850
  H         0.8559195254        4.7075097349       28.7726660393
  H         1.3499599937        6.3736518358       28.6803330440
  C         2.8574503550        4.9642966094       29.1889531455
  C         5.0718127894       -0.8596222671       32.5452015601
  H         6.9195599101        2.6826011025       18.4026204825
  H         6.5332757791        2.8171078842       20.0192363999
  C         5.5164919250        1.1732136635       18.7793023051
  H        11.3226589544        1.9201706833       22.1600998640
  H        11.7892059981        2.6750473092       20.6203900023
  C        12.8194306596        0.8483672164       21.1932635227
  C         9.9403882460        7.3188960000       16.9233336374
  C        10.2723984255        5.2451031479       15.7123891636
  H         3.2231352971        4.0746454936       28.7135682100
  H         3.6897092765        5.6432823391       29.0544522096
  C         2.5382404574        4.7213867792       30.6759025811
  H         5.4074662245       -1.8518048586       32.5461629709
  C         4.7194098254       -0.3258715109       33.7850561177
  H         5.2006480509        0.5570681074       19.6136495329
  H         5.9600309768        0.5949439036       18.0066193356
  C         4.2527961540        1.9231581423       18.3227053594
  H        12.5411588545        0.1596484694       21.9921195290
  H        13.1243128102        0.3193035721       20.2542906171
  C        13.9651360413        1.7808343394       21.7045819258
  N         9.6668230067        8.2301316984       17.9583990216
  C        10.2645998591        8.0428855803       15.7446756619
  C        10.5522791641        5.9611834918       14.5440473656
  H        10.4278623054        4.2370533088       15.7388470852
  H         1.6870848190        4.1086925795       30.8938001999
  H         3.3113909023        4.2939140773       31.3561545855
  H         2.3466234129        5.7540429162       31.0754222503
  S         4.4067397489        1.2821562466       34.2088728026
  C         4.6819170145       -1.3184395869       34.8658541079
  H         4.1925183359        2.8329398568       18.9728366320
  H         4.3921876444        2.3713467985       17.3470327757
  C         2.9251444141        1.1275166860       18.2095812043
  H        13.5711522719        2.8144992560       21.6136688750
  H        14.7365365588        1.7614793102       20.9832330324
  C        14.3153199190        1.7017375568       23.1967322809
  S         9.6384316044        9.7896492704       17.3686907051
  N        10.0538439131        9.4250699327       15.8672690620
  C        10.4864293905        7.4164710596       14.4789488969
  H        10.7298987059        5.3584223856       13.6515224955
  C         4.3821164578        0.6671406997       35.8445138819
  N         4.3815586823       -0.6836108855       36.0166981038
  O         5.0106716725       -2.5080557562       34.7540107280
  H         2.0649549892        1.7624177490       18.0158845652
  H         2.6919192455        0.7327747428       19.2626540865
  C         3.0002115869        0.0167686112       17.1682224523
  H        13.3721107293        1.9305680297       23.7763635725
  H        14.5845948006        0.7345571192       23.5864667332
  C        15.2196614208        2.8095912326       23.6340537335
  C        10.7189449070        8.1920699914       13.2806557243
  S         4.1782415846        1.6786716305       37.1785263586
  C         4.3187080004       -1.4552640021       37.3026111857
  H         3.0385597029        0.3554304639       16.1622392725
  H         3.8702441404       -0.5693039858       17.4081624811
  C         1.7197241164       -0.9401200106       17.2746862642
  H        14.8200559596        3.1885995680       24.5213453014
  H        15.3134397152        3.6177454332       22.9098505765
  C        16.6504018120        2.2722243513       23.8940797944
  H        10.5709857202        9.2214408670       13.3208427458
  C        11.2861473039        7.8481476002       12.0911534987
  H         3.6611362805       -1.0574677330       38.0983978107
  H         3.7691835122       -2.3770399605       37.0889663565
  C         5.6716451266       -1.6404375211       37.9203513365
  H         1.8020821044       -1.6368841853       16.4302757721
  H         0.8331981364       -0.3603428301       17.1518551529
  C         1.8052803327       -1.7048416353       18.5931586114
  H        17.1149410292        2.7653649449       24.7569846274
  H        16.5254560657        1.2249413179       24.0434287488
  C        17.6910972667        2.4771078109       22.7689666346
  S        11.6643194770        6.2716598086       11.4587046575
  C        11.3863070048        8.9360311193       11.1297023177
  H         5.5788651517       -2.0432588047       38.8990237818
  H         6.2392689768       -2.3428609750       37.3013776383
  H         6.1538191699       -0.6867910043       37.9989393692
  H         1.0992265687       -1.2321437521       19.2644071146
  H         2.7694297968       -1.6811806114       19.1228868316
  H         1.4793534183       -2.8076155080       18.6212307559
  H        17.4704649442        1.7047909250       21.9842870079
  H        18.7230781582        2.4667791483       23.1454173848
  H        17.3761304924        3.4015711116       22.2270292680
  C        11.8501407926        7.1099294018        9.8626413917
  N        11.8487449300        8.4766159246        9.9540269720
  O        11.2865144368       10.1278362939       11.3984884542
  S        12.3824289355        6.4102395160        8.3449226909
  C        11.7123965606        9.4270480971        8.8208690802
  H        12.1750288590       10.3572203398        9.0423353447
  H        12.2568730715        9.1022669544        7.8925381094
  C        10.2713342283        9.5487884885        8.3698708828
  H        10.2236028860        9.6981988220        7.3307431951
  H         9.7001753337        8.7764687015        8.6990309695
  H         9.8828915332       10.4575530344        8.8531133537
  H        21.2408147628        8.5601261674        2.9714677960
  C        22.0542893417        9.3747465547        2.9292785065
  H        22.8766740913        8.8679623406        2.4741871595
  C        22.5319503264        9.9654108705        4.2038388994
  C        21.6800668533       10.4100134258        1.7982231418
  C        21.4132986202       10.3237344856        5.1158382903
  H        23.2850469643        9.3815414559        4.6902622131
  H        22.9006475108       11.0327781574        3.9514246241
  H        20.8798489874       11.1105926585        2.1518776651
  H        21.3480676955        9.8105640845        0.9630092739
  H        22.5850734298       11.0262441109        1.5730478015
  C        20.9296408917        9.1467076015        6.0165135910
  H        21.6768857768       11.2010009941        5.6580872879
  H        20.5868903599       10.7532766639        4.5365902247
  C        20.1172185801        9.4750918301        7.2743059372
  H        21.7790658411        8.6322549734        6.4613214101
  H        20.5128689712        8.4564552369        5.3537818343
  C        18.9591580647       10.4679501818        7.1297142898
  H        20.8142082778        9.8773398254        8.0511224623
  H        19.7703956370        8.5657031158        7.7173836713
  C        17.6532535769        9.7424245208        6.6800700093
  H        18.8234533321       11.1508222991        7.9779266905
  H        19.2263165566       11.0882100847        6.2559523721
  C        16.3792604368       10.6718688913        6.6279961850
  H        17.4354419181        8.8864626346        7.3405274612
  H        17.7379128939        9.3683206731        5.6036134559
  C        16.7430042119       12.0342076511        6.0250692399
  C        16.0394405666       11.3463029734        7.9362016010
  C        15.1620469015        9.9975737947        6.0157337448
  C        16.6741330881       13.0756529414        6.8998242670
  C        17.1289918207       12.4546787081        4.7755631401
  C        16.1430784691       12.6675298124        8.1267772229
  C        15.5820432876       10.6252164664        9.0285826397
  H        15.4866692270        9.6293177520        4.9877971634
  H        14.8909531104        9.1151794091        6.5199023848
  C        13.9497779132       10.9539270512        5.8762487667
  S        17.1524682332       14.6085583713        6.1994133822
  C        17.3620896711       13.8048781438        4.7089002845
  H        17.1796863426       11.6829034051        3.9858646784
  C        15.9233185071       13.3020308801        9.3243155654
  H        15.3895061130        9.5784383512        9.0151849220
  C        15.3633270297       11.1757724149       10.2661033198
  H        14.2836052137       11.8687769242        5.4153231537
  H        13.4724742037       11.0879522900        6.8474804655
  C        12.7813503207       10.4845906856        4.8867671734
  C        17.8758068911       14.5553096512        3.4999108859
  C        15.4927548201       12.5327467301       10.3773439784
  H        15.8538574493       14.3520197575        9.3283445837
  C        14.8452439738       10.7757345938       11.4600851467
  H        11.9103201846       11.0789854822        5.2276376778
  H        12.6028362857        9.4492052706        5.0280247564
  C        13.0359559179       10.8620854320        3.3825296968
  C        17.8925942651       15.9759735255        3.3162755846
  C        18.2918936839       13.7593992430        2.3610627053
  C        15.1073351879       13.1834865542       11.7048957487
  C        14.7634027906       11.7904923957       12.3916319904
  S        14.5739393895        9.1763683915       12.1434253546
  H        14.0010032871       10.5560065034        3.0886431243
  H        12.9494780628       12.0230473606        3.2716291151
  C        12.0076108601       10.2424984934        2.4330511863
  N        17.6807832921       16.9573864494        4.2828180622
  C        18.2114903928       16.6063322484        2.1503231392
  C        18.5270548951       14.3512575453        1.1633393587
  H        18.3625311947       12.6687388125        2.4523513624
  C        13.8902286700       14.0996552982       11.5978125363
  C        16.2918847989       13.8831856613       12.5323672740
  C        14.3905096598       11.3271035638       13.6920383901
  C        14.2673737327        9.9637928103       13.6742983796
  H        11.2653410740        9.7136137029        2.9938646650
  H        11.4344796837       11.0316467501        1.9889682715
  C        12.6589812181        9.5911005738        1.1509478090
  S        17.7863912826       18.4789425741        3.6881980887
  N        18.0967185476       18.0354285267        2.1700936895
  C        18.4242819064       15.8561999303        0.9624968098
  H        18.8441858287       13.7056051537        0.3441243395
  H        14.2085117021       14.9437971182       10.9826578996
  H        13.6139145832       14.4507221885       12.6140899579
  C        12.6307853453       13.3558131154       11.1562810067
  H        16.7741629477       14.5689691932       11.9130379487
  H        15.8412469348       14.3774367583       13.3478536585
  C        17.3969879658       12.8528490000       12.9946085293
  H        14.3797546068       12.0166740346       14.5122142387
  C        13.9563516426        9.1661401991       14.9150914510
  H        11.8737047909        8.8854181868        0.7260032214
  H        13.5436222195        9.1083303023        1.4427558046
  C        12.9777969998       10.5642169131        0.0305179783
  C        18.6546400495       16.5113599800       -0.2646543120
  H        12.7713410574       12.7421804691       10.2513806264
  H        12.3445658820       12.6132930593       11.9291594994
  C        11.3740081376       14.2049934049       10.9665869305
  H        17.4990089092       12.0128277820       12.3499616679
  H        17.2374119469       12.4840101661       13.9937682483
  C        18.8175179847       13.3836537294       13.1409918352
  C        13.8167979055        7.6953531170       15.0410330397
  C        13.6043680373        9.8382125826       16.1296720461
  H        13.1466100412       11.5911048709        0.3833522782
  H        13.9389791694       10.2719357258       -0.4506413369
  C        11.8483586663       10.6648869966       -1.0361694756
  H        18.6703582273       17.5644024121       -0.2430258260
  C        19.0085038431       16.1159876735       -1.5227970430
  H        11.4231856506       14.9578354925       10.1717314859
  H        11.2450626510       14.7839348369       11.8501870991
  C        10.2729809082       13.2685383531       10.5815345111
  H        19.5082877858       12.7647745914       12.5528143570
  H        18.9820459773       14.3746395730       12.7043966348
  C        19.3221200434       13.4673962808       14.5999462949
  N        14.0309666079        6.8315800414       13.9673619992
  C        13.4634710822        7.0616407481       16.1629636532
  C        13.3735302036        9.1234840241       17.3011507238
  H        13.5560586526       10.9177369281       16.1557020521
  H        12.1094240394       11.2933377281       -1.8262275987
  H        10.9016912991       11.0241036558       -0.7414108750
  H        11.5989436261        9.7163427107       -1.5107934322
  S        19.3579026951       14.4610573278       -2.0067086550
  C        19.1057218751       17.0618571768       -2.6533073518
  H        10.7275425901       12.4121709387       10.0807475664
  H         9.9234477072       12.8506760382       11.5438627059
  C         9.1204701512       13.9508402137        9.8422382007
  H        19.3508325773       12.4382806955       15.0472925676
  H        18.4755969695       13.9426112424       14.9936495596
  C        20.6382967379       14.2615514443       14.6503677343
  S        13.9193761754        5.3364347498       14.5349660801
  N        13.3412815499        5.6413650198       15.9694840462
  C        13.2394812137        7.6550929151       17.4028376402
  H        13.2919719253        9.7434876975       18.1626676991
  C        19.5794442642       15.1049842436       -3.6629194101
  N        19.4850691388       16.4201525749       -3.7611562112
  O        18.8656651050       18.2608558763       -2.5693183739
  H         8.4473023099       14.4851515781       10.4683862011
  H         9.5839190936       14.7184983206        9.1411887296
  C         8.2518610256       12.9602347859        9.0474568173
  H        21.2126636654       13.8935672400       15.5287067333
  H        21.2910019560       13.9887973568       13.8648095883
  C        20.3210473525       15.7505410407       14.8186456120
  C        12.8864756991        6.8862166853       18.5647071603
  S        19.9817999668       14.1253762500       -5.0598347694
  C        19.5288636966       17.1372337886       -5.0713399421
  H         8.7822813895       12.7215327632        8.1866533072
  H         8.2223064352       12.0432523564        9.6388579801
  C         6.8335167738       13.5324198676        8.6100794214
  H        19.9897742688       15.9161022928       15.8590084596
  H        19.4868958400       16.0298989990       14.1460439425
  C        21.6167280077       16.5497250763       14.5842665309
  H        13.0026596062        5.7750118596       18.3900482072
  C        12.5070626803        7.1584942354       19.7832366832
  H        20.2020661111       16.7486883322       -5.7973891154
  H        19.9928447649       18.1854086596       -4.9207566638
  C        18.1052577309       17.1902377803       -5.6119382805
  H         6.5705242303       12.9235589862        7.7374781161
  H         6.9284511425       14.5155436556        8.2334741759
  C         5.6921898564       13.3876517866        9.6332159331
  H        21.5688775449       17.4363416824       15.1635442067
  H        22.4703305406       16.0790245650       15.0570632643
  C        21.7693866458       16.9029632204       13.1290335790
  S        12.0006727959        8.6410021093       20.3796545317
  C        12.3381016812        6.0067636407       20.7594056735
  H        17.9488471740       16.6466577051       -6.5644024115
  H        17.9056879324       18.2261388729       -5.7538680056
  H        17.3792288821       16.7317190157       -4.9896209159
  H         6.0818544666       12.9996449442       10.5742059755
  H         5.1626521901       14.2762706956        9.8604047412
  H         5.0474531918       12.6239250609        9.2632317785
  H        20.8153198432       17.2427642040       12.7336662192
  H        22.5695857076       17.5879023022       12.9668209586
  H        21.9921759551       16.0397132254       12.4670817046
  C        11.7227617805        7.8043704643       21.9467446836
  N        11.9315431096        6.4641491920       21.8994755270
  O        12.7014060752        4.8841277406       20.5857850976
  S        11.5981835603        8.6211788306       23.4454950980
  C        11.5995644233        5.6694545749       23.0963880211
  H        11.2954591818        4.6963484655       22.7932387333
  H        10.8044220830        6.2101352575       23.6468951190
  C        12.8399116139        5.5280011758       24.0043084438
  H        12.6972931050        4.5748605119       24.4044652088
  H        12.7686721936        6.2343150145       24.7936834609
  H        13.7949587515        5.6151501121       23.4453348602
