352
 i =    75700, time =    75700.000, E =        25.4205933455
  H        10.4419012210        4.5315431943       31.6384876071
  C        10.3756269723        5.6061937155       31.7606783417
  H         9.3473101226        5.9313337300       31.6754453661
  C        11.4063316164        6.3082562758       30.8962441245
  C        10.6912321848        5.8520384298       33.2679489436
  C        11.4908222444        5.8140218455       29.4700770213
  H        11.2428205629        7.4007423366       30.8024338383
  H        12.3613409450        6.1861060280       31.3389552987
  H        10.0223042574        5.3772421419       34.0231577638
  H        11.5338120508        5.2315910186       33.5331881115
  H        10.8611539494        6.8768135672       33.3904550522
  C        10.2256288902        5.8089008404       28.6231875089
  H        11.8420157595        4.7782695530       29.5040684196
  H        12.1631158729        6.4809436171       28.9334912519
  C        10.6601679987        5.7323724062       27.1439933779
  H         9.5390731255        5.0592735962       28.8071892154
  H         9.6379271496        6.7223991510       28.7136519138
  C         9.6786044203        5.2311358310       26.1577545112
  H        11.5543821396        5.1572313049       27.0583971901
  H        10.9994208990        6.6395632941       26.7952995875
  C         8.3575116030        5.8458823010       26.0030790123
  H        10.2340774352        5.0895894907       25.2812709906
  H         9.4390789850        4.1921293926       26.4788551977
  C         7.3508035305        4.9129466287       25.2722631561
  H         8.0492450480        6.1245032414       27.0150009398
  H         8.5348857372        6.8259707148       25.5131839812
  C         7.1304355476        3.5750502844       25.9866025768
  C         7.8642444692        4.2231620446       24.0695310058
  C         6.0612075949        5.6051489790       24.9067124159
  C         7.4474858281        2.4736471732       25.2009147270
  C         6.7076965729        3.2504405682       27.2620932836
  C         7.8631675084        2.9139798815       23.9311501214
  C         8.2752875492        4.9053277694       22.8927810438
  H         5.5217808293        5.0410936480       24.2311000957
  H         6.3120483773        6.5591456057       24.5520127244
  C         5.0007721807        5.8043881670       26.0373969935
  S         7.1231172724        1.0054513700       25.9888808082
  C         6.4494396353        1.8750865011       27.3995551095
  H         6.5297313024        3.9950084806       28.0111207906
  C         8.1184450748        2.4229915380       22.6742151448
  H         7.9770295179        5.9551601397       23.0444098869
  C         8.6097031291        4.3588130407       21.7209701125
  H         5.3302637463        5.4492954354       27.0728891730
  H         4.8265530777        6.8724210905       26.1826566446
  C         3.6360252239        5.1617351843       25.5984259640
  C         5.9010655246        1.1826818142       28.6227189086
  C         8.5405884473        3.0603172113       21.5290537540
  H         7.9574816251        1.3960037257       22.4446554586
  C         8.9538074903        4.8133339378       20.4902855316
  H         3.7262806136        4.0458075178       25.7034508817
  H         3.3513414840        5.4000851385       24.6050263293
  C         2.6249763973        5.5515657890       26.6615920077
  C         5.9736492581       -0.2074988132       28.9133808298
  C         5.2895156981        2.0422009668       29.6937956596
  C         8.8351937637        2.4254296546       20.1786952217
  C         9.0775892772        3.8384723083       19.5445807315
  S         9.1975046138        6.3713270887       19.9094731876
  H         1.6130561910        5.4734318645       26.1970556021
  H         2.8797449610        6.5725206763       26.9305807487
  C         2.4645833314        4.7688396173       28.0405003374
  N         6.3342631485       -1.1976305771       27.9927296527
  C         5.5958947152       -0.7291932133       30.1288099124
  C         4.9052884475        1.4861790839       30.9173445392
  H         5.1636108204        3.0582932370       29.5927015593
  C         7.5993599192        1.7338327564       19.5828587841
  C        10.0793836751        1.5667041273       20.2942783828
  C         9.3710067409        4.3858971244       18.2733993453
  C         9.4818768169        5.7743319401       18.3565107333
  H         1.9639816142        3.8309751946       27.8896743368
  H         3.4761741635        4.5691695977       28.4374735207
  C         1.7170825124        5.6077764075       29.1140151434
  S         6.3941056028       -2.6005917793       28.8473030202
  N         5.7967262488       -2.1191603378       30.2385196434
  C         5.1217343883        0.0602304884       31.1910241436
  H         4.4182790755        2.1247063554       31.6078263431
  H         7.2957835230        0.8723262573       20.1077107426
  H         7.9520559168        1.2849714555       18.5991136356
  C         6.3996689449        2.6266936620       19.3283313030
  H        10.2483510341        1.0698583559       19.3567449595
  H         9.7925531762        0.7614232545       21.0447018007
  C        11.3116799099        2.3439461617       20.8037477018
  H         9.4987592752        3.7378303913       17.4132899014
  C        10.0365059737        6.5013666375       17.1719613338
  H         0.8539388041        6.0990588051       28.6977927391
  H         2.4390074488        6.2422881324       29.4999944962
  C         1.2048814672        4.7156891784       30.2331345016
  C         4.9004369884       -0.5186769405       32.4935872053
  H         6.3953195591        3.3062437311       18.4827790639
  H         6.2416633297        3.2615819518       20.2580078814
  C         5.1906874641        1.7608397590       19.0648126005
  H        11.0881308111        3.0137055322       21.6567293922
  H        11.7028719583        3.0448999111       19.9996628792
  C        12.4920794505        1.5766690478       21.2843301372
  C        10.0478851405        7.9240130171       17.0904167028
  C        10.2414096412        5.8219791406       15.7988262612
  H         0.5188644881        5.1400335335       30.9149263288
  H         0.5758815590        3.9311418219       29.8580663285
  C         2.2365614210        4.3203149019       31.1867366477
  H         5.1401469377       -1.5581898353       32.5425874092
  C         4.4641439434       -0.0630652816       33.7101830193
  H         4.2599326707        2.2820219712       19.1554289689
  H         5.1178424683        1.0404484738       19.9054815814
  C         5.2440324874        0.9197202933       17.7647663743
  H        12.1963475954        0.8834662380       22.0991381555
  H        13.0355217962        1.0223166110       20.5194576585
  C        13.5824396365        2.4918225370       21.8416160642
  N         9.6243468372        8.8020369286       18.1277387883
  C        10.3472815738        8.6495812850       15.8939809001
  C        10.4690797407        6.5298056852       14.6011793096
  H        10.0495661128        4.7512335751       15.7724956411
  H         2.8399812970        5.2777356626       31.3103719464
  H         1.9519576353        3.9254218110       32.1270411546
  H         2.8878463632        3.6084824924       30.6596895126
  S         4.1041175231        1.5665657130       34.2145127110
  C         4.3942122730       -1.0891080864       34.7910492937
  H         5.3224356714        1.5827340059       17.0225961297
  H         6.0743595581        0.2366425811       17.7189908258
  C         3.9650346937        0.2367313937       17.5060622742
  H        13.1301748652        3.1181168076       22.6520670569
  H        14.0069265894        3.1146103070       21.0679267228
  C        14.6595263872        1.6615169582       22.4926582599
  S         9.8617022327       10.3061179548       17.6292924220
  N        10.2428540633       10.0750083650       16.0411278036
  C        10.6466839904        8.0049717749       14.6280675707
  H        10.6859783751        6.1311422886       13.6358268976
  C         3.9367097256        0.8741140312       35.8590050285
  N         4.0203582749       -0.4794586843       35.9380074077
  O         4.6973926448       -2.2580952773       34.7261255847
  H         3.9440930591        0.1466816389       16.3934258791
  H         3.1162013317        0.8698273540       17.7691055981
  C         3.7686550681       -1.1346886539       18.1179829031
  H        14.1582712425        0.9967830157       23.1910996771
  H        15.1684762367        1.1038778746       21.7474990298
  C        15.6012656288        2.6020772708       23.2898350529
  C        10.9284317770        8.7408747697       13.4947367332
  S         3.4544962953        1.7551402352       37.3208393690
  C         3.7674278051       -1.2571684376       37.1260431903
  H         4.6573158854       -1.6543065472       17.7689446901
  H         3.8279453200       -1.0317142481       19.1428027232
  C         2.4473738932       -1.7146398391       17.8494757174
  H        15.0618762013        2.7604041551       24.2297839197
  H        15.6575870400        3.5917369149       22.8405612549
  C        16.9992423006        2.0224562957       23.5495892483
  H        10.8140451409        9.7608703320       13.6120223591
  C        11.4897646975        8.4326425563       12.2631954128
  H         2.8714187265       -0.8075402854       37.5235013490
  H         3.3813288766       -2.1975752765       36.8639472978
  C         5.1365720447       -1.3351710059       37.9181637811
  H         1.6501482984       -1.0360793649       17.9211379270
  H         2.1531978446       -2.3957483359       18.6585938824
  C         2.2869578492       -2.3431442880       16.4165225327
  H        17.4615476838        2.4296574457       24.4321620930
  H        17.0392696560        0.9915091713       23.7947807210
  C        17.9115925830        2.2330542184       22.3601225645
  S        11.9600142039        6.9497641910       11.5698156567
  C        11.4457001565        9.6156842396       11.3620307344
  H         5.6455051545       -0.3921163714       38.1083717245
  H         5.0920265956       -1.8572435151       38.8460857205
  H         5.7253638559       -1.9598206719       37.2892041569
  H         1.8046277315       -1.5425488843       15.7824541507
  H         1.6366078119       -3.2474058118       16.3907961050
  H         3.2383556912       -2.6397008477       15.9625599429
  H        18.8174122959        2.6191534006       22.7202481740
  H        17.4672403932        3.0608460880       21.6890209025
  H        18.0882675048        1.3311258898       21.7651396597
  C        12.1869661324        7.8522964420       10.1169238977
  N        11.8743702878        9.1478007912       10.1738469323
  O        11.1880248647       10.7918139339       11.6380173485
  S        13.0199826922        7.0573512369        8.6959557810
  C        12.2546692245       10.0373743259        9.1099985232
  H        12.1739956423       11.0803382729        9.3204968528
  H        13.2964440587        9.8815489964        8.8718763075
  C        11.2428855240        9.9097628648        8.0086531335
  H        10.9178043523       10.8204011290        7.5238563604
  H        11.5778624961        9.3428041050        7.1918625790
  H        10.3784862921        9.4549869287        8.3607255334
  H        20.4674669861       11.1041470803        2.7576152652
  C        21.1370136055       10.3456923389        2.4088862316
  H        20.4028688062        9.5669353045        2.4042145386
  C        22.3595702800       10.0578091883        3.3036794479
  C        21.4792564312       10.7767451745        1.0540505760
  C        22.0334352460       10.2840803669        4.7817774010
  H        22.7177526015        9.0470557415        3.1635222114
  H        23.2350384868       10.6440903211        2.9104923306
  H        20.6129242936       11.0304704123        0.4755194864
  H        22.0074601940        9.9656824307        0.5387703046
  H        22.1393892663       11.6017969568        1.1455109002
  C        21.1868761594        9.2365117038        5.4252501340
  H        22.9176960011       10.5249177410        5.3928241032
  H        21.4317031206       11.1727533295        4.8163850963
  C        20.3906405238        9.7574009831        6.6292561018
  H        21.8781417008        8.4346900666        5.8466716693
  H        20.5294580768        8.7827357495        4.7050510646
  C        18.9346316918        9.9499110926        6.3030334672
  H        20.8473580159       10.6932471669        6.9023991412
  H        20.5210472032        8.9788421479        7.4921474659
  C        18.0658935943       10.2910292749        7.3653740695
  H        18.9842663659       10.7582897170        5.5761225249
  H        18.4870991252        9.1972613591        5.7087557180
  C        16.7852712591       11.0878032412        7.0034926586
  H        18.6438730687       10.7622583028        8.0576549555
  H        17.8918878732        9.3019546632        7.7365716491
  C        17.0682430290       12.4436345896        6.2729708740
  C        16.1978918048       11.8225584196        8.1737060229
  C        15.6703453547       10.2118222720        6.2144814582
  C        16.6858640913       13.5105313609        7.0246295880
  C        17.4782454634       12.8707484652        4.9932593244
  C        16.1755230040       13.1818227722        8.2738224992
  C        15.7736685567       11.1970802234        9.3013446168
  H        16.0155778707        9.8172128464        5.2260235063
  H        15.3932023361        9.3723036694        6.8343233749
  C        14.5285639047       11.1251558446        5.7210058731
  S        17.0782303033       15.0212548825        6.2954877337
  C        17.5051209042       14.2496833809        4.7661210477
  H        17.8414581189       12.1190249832        4.3319525627
  C        15.7790083270       13.8274073614        9.4635530707
  H        15.6661403709       10.0602623140        9.2609499680
  C        15.3996053038       11.8058056989       10.4950974255
  H        14.9748340958       11.9799596384        5.1649230523
  H        14.0180076193       11.5531559245        6.5481624781
  C        13.4069890551       10.3936911633        4.9387135182
  C        18.0131121486       14.8596460074        3.5674124257
  C        15.3302112306       13.1208460743       10.5927741271
  H        15.7107992550       14.8873052458        9.4754175696
  C        14.8919656782       11.3711294019       11.6611118872
  H        12.4463765554       10.8539741574        5.1448746053
  H        13.1902526477        9.3641913389        5.2126679857
  C        13.5635257512       10.3798271800        3.4595912235
  C        17.9792077991       16.2770325493        3.2964206299
  C        18.3514042172       14.0179374760        2.4029777971
  C        15.0255912183       13.7480344935       11.9054339224
  C        14.7940652606       12.3751140876       12.5769539834
  S        14.6001913351        9.8026849219       12.3045331239
  H        14.2060460582        9.5890751909        3.1261811430
  H        13.9145645240       11.3957428593        3.1571399921
  C        12.2593072735       10.3476301457        2.7202795325
  N        17.5742567335       17.2795320281        4.2885581192
  C        18.3213002725       16.8472530721        2.1017389975
  C        18.7842645572       14.5831726041        1.1951413701
  H        18.4591270431       12.9982779259        2.4025050822
  C        13.8054182787       14.6671177686       11.9143048291
  C        16.2428074687       14.4152086203       12.6345204731
  C        14.5402642500       11.8421905866       13.8578603006
  C        14.4184006675       10.4799491088       13.8990317413
  H        11.4930818325        9.8924586486        3.3817700726
  H        11.9548166849       11.3379741492        2.5374897372
  C        12.4630443563        9.7096929063        1.3797663452
  S        17.4772083155       18.6945439506        3.4757794028
  N        18.2043642013       18.2808949427        2.1102160952
  C        18.6705303550       16.1008584829        0.9543913871
  H        19.0768965369       13.9018849216        0.4526431443
  H        13.8665381882       15.4292085267       11.1816930548
  H        13.6446806034       15.1778949286       12.8867237861
  C        12.5044775829       13.9896681182       11.6183690395
  H        16.5363176434       15.2301644894       11.9120319084
  H        15.9152002585       14.9495320369       13.4034328243
  C        17.4552445158       13.4603209934       12.9000987560
  H        14.4694582946       12.5333549897       14.5737736989
  C        14.1560952971        9.7018709667       15.1559610338
  H        11.5148848063        9.3326067732        0.9689782689
  H        13.1114276700        8.8908276414        1.6008266761
  C        13.2665650152       10.6718227328        0.4599697478
  C        18.9993529644       16.7506999372       -0.2225525893
  H        12.5412678723       13.4856485299       10.6359815705
  H        12.3053499970       13.2992721260       12.3898145506
  C        11.1890863186       14.7985287116       11.5993761055
  H        17.7479645640       13.0170132747       11.9913478838
  H        17.3168560523       12.6394868739       13.5847216002
  C        18.6017379708       14.3093431063       13.2934324804
  C        14.0306364206        8.3476977362       15.2212636209
  C        13.8346565004       10.4128018943       16.4562474488
  H        13.2806916448       11.6377192231        0.9357360442
  H        14.3306231248       10.3829720701        0.3154361478
  C        12.7059979470       10.6789105883       -0.9726790498
  H        18.9163603239       17.7821584777       -0.3072104174
  C        19.1881515798       16.2515859989       -1.4806135639
  H        11.3379729415       15.4849816458       10.7407486940
  H        11.2173383919       15.2965844377       12.6004402036
  C        10.0164821004       13.8722356379       11.3487361139
  H        18.9158096364       14.9491062520       12.4359087568
  H        18.5059129611       14.8558530431       14.2107846792
  C        19.8010313886       13.4396634880       13.6700507146
  N        14.1937010843        7.5184200081       14.1110179487
  C        13.6087038500        7.6872784153       16.3579186679
  C        13.4943953628        9.7742163253       17.6000211730
  H        13.8844129211       11.5074562402       16.4056167606
  H        12.2569637745        9.7379014510       -1.1834975554
  H        13.4976198409       10.6874932635       -1.7756722393
  H        11.8502894570       11.3291238362       -0.9963005400
  S        19.2229279901       14.5723874536       -1.9187701887
  C        19.3725170045       17.1913865310       -2.5085175338
  H        10.2735608364       12.9021918614       11.2115498173
  H         9.2864959972       13.7382607454       12.1306533382
  C         9.4824890027       14.2254621935        9.9057460768
  H        20.2138387958       13.1142307029       12.6943712553
  H        19.4132344371       12.4986813959       14.0858112665
  C        20.8318210401       14.1260779098       14.5653254742
  S        14.0732078197        6.0594813105       14.7244516128
  N        13.6415053283        6.3227745033       16.2233279289
  C        13.3530430240        8.3117427208       17.6179954642
  H        13.3828278988       10.3587380280       18.5224935392
  C        19.5424425172       15.2097697855       -3.5683477948
  N        19.7007832668       16.5380167229       -3.6339100039
  O        19.0717802158       18.3886477119       -2.4128108191
  H         8.9118958791       15.1389855468        9.8678353572
  H        10.3371128173       14.4056669971        9.2015879952
  C         8.5814668666       13.1504277372        9.2139404030
  H        20.3643279727       14.5113993201       15.4224008228
  H        21.6784816395       13.5755790922       14.9128488054
  C        21.5761138855       15.2749286304       13.8618022729
  C        13.1773148086        7.4562933413       18.7534239837
  S        19.8030595445       14.2495297136       -5.0065533046
  C        19.7222247274       17.1710237331       -4.9173435507
  H         9.1952260859       12.5794804649        8.4939525724
  H         8.2907771435       12.4658367936        9.9461510103
  C         7.3948525456       13.6825489688        8.5657415535
  H        20.9256350953       15.6642296898       13.0306565803
  H        22.4432403671       14.8530923647       13.3695884769
  C        22.1074344145       16.4654863245       14.7094878556
  H        13.4950453569        6.4546257538       18.6026204501
  C        12.6757107568        7.6996958391       20.0101112004
  H        20.2910259362       16.6334849366       -5.7228369627
  H        20.2630088679       18.0899036981       -4.8467500210
  C        18.3534820201       17.6017831700       -5.4200558635
  H         7.1112264420       12.9968082282        7.7932057101
  H         7.6061292384       14.6611743478        8.0922490375
  C         6.2304288384       13.8614298494        9.5127074813
  H        22.4787311562       16.2209419829       15.6895635414
  H        23.0081767708       16.7984830063       14.1644571273
  C        21.1879377066       17.6461935286       14.8026381280
  S        12.1001595354        9.1765437607       20.5503846140
  C        12.5969876712        6.4976127577       20.8690118837
  H        18.5215331663       18.3038130353       -6.2382298999
  H        17.7818155119       17.9901463648       -4.5853115671
  H        17.7648399392       16.7511888269       -5.7681874926
  H         6.0560726426       12.9405914313       10.0563392068
  H         6.4385444736       14.6834746537       10.1969037431
  H         5.3317926142       14.2377444837        9.0020770748
  H        21.7289879470       18.5054184751       15.1657112637
  H        20.6199269936       17.8258069653       13.9085475384
  H        20.3911644197       17.2943014937       15.4480591142
  C        11.8233023075        8.2975487498       22.0425822931
  N        12.0297295504        6.9293055048       21.9932865347
  O        12.5757039961        5.3836294679       20.4065205164
  S        11.2579475418        8.8471580292       23.6295226901
  C        11.7722096324        5.9442724277       22.9785889545
  H        11.6035199003        5.0342059152       22.6030294034
  H        10.9657917916        6.2768328704       23.5926178600
  C        12.9833444497        5.7353088580       23.9183532473
  H        12.9687727308        6.5020413049       24.6606212932
  H        13.8050611572        5.7401120886       23.2736328329
  H        13.0227311820        4.7817244816       24.4792308710
