352
 i =    63700, time =    63700.000, E =        25.0914152983
  H        10.2361775973        4.4640609051       31.3366025941
  C        10.3550657004        5.4109683627       31.7816427086
  H         9.2591649456        5.6879386923       31.8275771527
  C        11.0100880193        6.3730860062       30.7605018196
  C        11.0016206695        5.4755179488       33.1611137750
  C        11.5718312829        5.6780450418       29.5427484454
  H        10.2386377404        7.0634312872       30.4584790747
  H        11.9062438030        6.9375261310       31.1048986614
  H        10.4647133390        4.9952752607       33.9904031867
  H        11.9277757853        4.9664466424       33.1060021349
  H        11.2999462219        6.4845619905       33.4923478464
  C        10.4500332104        5.1539714719       28.6511820975
  H        12.3631854421        4.9932435921       29.8131312166
  H        12.0496275056        6.4086687314       28.9224935286
  C        10.7813729187        5.4702831778       27.1699775842
  H        10.5334777510        4.0379410587       28.6410059845
  H         9.4497690385        5.4238871491       29.0018843549
  C         9.7187660676        4.8710174729       26.1771716083
  H        11.7635841180        5.0597431396       27.0155100957
  H        10.7303376762        6.5221175924       27.1039829240
  C         8.4141319908        5.6348083398       26.2754458215
  H        10.0945831755        4.8557385899       25.1807177807
  H         9.4739940015        3.9280318043       26.4651784350
  C         7.3476578732        4.8887674465       25.4287026621
  H         8.0045841875        5.8176251073       27.2597417984
  H         8.5401914242        6.6594352783       25.8230385475
  C         6.8989866338        3.5063860942       25.9911638413
  C         7.7524753257        4.2086918000       24.1442941331
  C         6.1758102639        5.8256444164       24.9401649333
  C         7.1346533652        2.4251329365       25.1482461409
  C         6.3328655464        3.1449560089       27.1987424444
  C         7.7256666010        2.8530262397       23.9885150571
  C         8.1602968267        4.9205069550       23.0175888465
  H         5.7756729010        5.2910932399       24.0789468851
  H         6.5552175523        6.7329820906       24.5320509266
  C         5.0223023284        6.1306865531       25.9391173356
  S         6.5554354129        0.9258661957       25.8748138908
  C         6.1729227592        1.7684970211       27.3566587370
  H         6.1109453297        3.9826611780       27.8992566106
  C         8.0598947501        2.3339640985       22.7873364695
  H         8.1185967503        6.0061122357       23.0551449766
  C         8.5642549792        4.3409320301       21.8609521031
  H         5.1313389094        5.4501091697       26.7319763191
  H         5.0517236286        7.1059684933       26.2830105009
  C         3.5814937419        6.2276006071       25.3650623802
  C         5.7355097860        1.0331921717       28.6175498570
  C         8.5479735245        3.0384024792       21.6853554251
  H         7.9875093866        1.3229207252       22.6861243413
  C         9.0277071407        4.7611897516       20.6095990544
  H         3.3770497767        5.4476740153       24.7177260004
  H         3.5271495469        7.1679564055       24.7773834483
  C         2.5957111052        6.1611403027       26.5436839253
  C         5.8179212470       -0.3349142840       28.8611407192
  C         5.3703959211        1.8651318796       29.8160531784
  C         8.8430024732        2.3551442775       20.3575891289
  C         9.1704496691        3.7270039599       19.7218681750
  S         9.3245792287        6.2922642918       19.9037718274
  H         1.6474963293        6.7511214731       26.3963626003
  H         3.0687766509        6.6995785622       27.3603938663
  C         2.2948985577        4.7483655592       27.0620639414
  N         6.2285808525       -1.3184759853       27.9225765267
  C         5.3695130436       -0.8897852655       30.0686371327
  C         4.9322882269        1.3263811812       31.0198276118
  H         5.2186674221        2.9804771546       29.6085010096
  C         7.6561764642        1.5751333766       19.7139906871
  C        10.1610979730        1.6193529364       20.3916176393
  C         9.4834558665        4.1957972230       18.4359009433
  C         9.6494729249        5.5448417409       18.3666832862
  H         1.6597880324        4.3601630174       26.2529171909
  H         3.1857909428        4.1488311465       27.1392574595
  C         1.5750626995        4.6305036238       28.4542056789
  S         6.2265899564       -2.7514352957       28.6161527480
  N         5.5898586740       -2.2748001126       30.0411497624
  C         5.0037259644       -0.1502259050       31.2078862394
  H         4.4480869831        1.9897506260       31.6985649730
  H         7.3028587484        0.7607881873       20.3764058261
  H         7.9678847754        0.9843082747       18.8640007750
  C         6.4899364004        2.4890537649       19.3534844423
  H        10.5033522676        1.4009714198       19.4312327128
  H         9.9778464061        0.5887446613       20.7937270036
  C        11.2623278483        2.1971354010       21.2623840047
  H         9.4885287983        3.4567780344       17.5914117754
  C         9.9559188920        6.2867308422       17.1536083167
  H         1.1787076378        3.6397500489       28.5927089002
  H         0.7576675747        5.2374865557       28.6039504783
  C         2.5397704289        4.8409447081       29.5922550577
  C         4.8059761601       -0.8819467304       32.3974985143
  H         6.7384766641        3.0788055146       18.4417251357
  H         6.3792417653        3.0616450264       20.2108627710
  C         5.1507201054        1.7754782926       19.0500157803
  H        11.0249086129        2.2725337067       22.3244318121
  H        11.4726695550        3.1975512292       20.8905035874
  C        12.5325509486        1.3543758450       21.0532896504
  C        10.1386021215        7.7033154719       17.0347424799
  C        10.4254608034        5.5095169125       15.9435899210
  H         3.1708062154        3.9667504217       29.7441124207
  H         3.3143065258        5.5639392634       29.3785030885
  C         1.9579712542        5.1724808932       30.9275163820
  H         4.7507788943       -1.9292385618       32.2797414912
  C         4.6212097083       -0.3717712779       33.6957815631
  H         4.3167082101        2.5017168450       19.2333814914
  H         4.9631894083        0.9674248603       19.7539113616
  C         4.9646971174        1.3301578282       17.6578125321
  H        12.5255370177        0.5680632948       21.7691095886
  H        12.6291815493        0.9124345942       20.0908900529
  C        13.7230749911        2.1723815573       21.2539249431
  N         9.9694133540        8.6095054900       18.1096267297
  C        10.5688656740        8.3167045336       15.8776772506
  C        10.7647665088        6.1718601484       14.7666187933
  H        10.6104159279        4.4612392002       15.9710480580
  H         1.6737697230        6.2490894082       31.0154411774
  H         1.0518125235        4.6682612779       31.1740846049
  H         2.7752989651        5.0928829297       31.7216726544
  S         4.3963386972        1.2791123902       34.1633123020
  C         4.5865967543       -1.2777008349       34.8458042686
  H         5.0279631663        2.3231640891       17.2426638042
  H         5.7700992137        0.5963242360       17.3494303384
  C         3.5793675837        0.6729745483       17.5417256800
  H        13.6795587036        3.1032233303       20.7820372514
  H        14.5900464886        1.7556209254       20.7846948755
  C        13.9438710734        2.2875693028       22.7171138675
  S        10.0326005905       10.1817169746       17.4667540669
  N        10.6017919699        9.7486325048       15.9795152195
  C        10.8674401298        7.6431837877       14.6848278638
  H        10.9102272426        5.6167724227       13.9536403994
  C         4.4872782864        0.7554097735       35.8004178765
  N         4.3192616643       -0.5827687568       35.9482809823
  O         4.7227814387       -2.5045911498       34.7511810284
  H         3.3222128416        0.7010166505       16.4811307864
  H         2.9294113911        1.4112303047       17.9474155162
  C         3.2525868741       -0.6995974002       18.0737831015
  H        13.1426361988        2.7391394100       23.2964434900
  H        14.0802209187        1.2761492549       23.0469848807
  C        15.1868030507        3.0632382566       23.0487656712
  C        11.2581377097        8.4470307095       13.5465949474
  S         3.7787861786        1.6866801032       37.0978820478
  C         4.3175559693       -1.2279545996       37.2747765073
  H         3.7145061003       -1.4747809781       17.4134865830
  H         3.7045444309       -0.8118561056       19.0560091621
  C         1.7308706025       -0.9325724422       18.1101913768
  H        14.6997127104        3.8951404478       23.6137868115
  H        15.4876611934        3.4257571557       22.0699873804
  C        16.2631653869        2.4258249190       23.9893352281
  H        11.2116222561        9.5156692103       13.6074614512
  C        11.6998286291        8.0927538766       12.3020384692
  H         3.5521005819       -0.6757500651       37.8773016688
  H         3.9287791749       -2.1972506576       37.2841978223
  C         5.7358334854       -1.3581183873       37.8795951566
  H         1.2884145279       -0.4610670012       17.1975340173
  H         1.3949260605       -0.4572163217       19.0827025496
  C         1.4211743129       -2.3748916340       18.0593202472
  H        16.5286255068        3.1193406727       24.7568656949
  H        15.7134678618        1.5163328610       24.4058355690
  C        17.4762946596        1.9871218542       23.2527537141
  S        12.2737782509        6.6335843352       11.7428653640
  C        11.5682168419        9.1451121298       11.2571579298
  H         5.6721456448       -1.3527416075       38.8998182433
  H         5.9454397188       -2.3777229694       37.6274041103
  H         6.6550421046       -0.8299510239       37.5898794343
  H         0.5217717547       -2.6156080837       18.5798288702
  H         2.2308102739       -3.0496538459       18.4339389772
  H         1.3527612701       -2.7843585825       17.0304072212
  H        18.2962089423        1.9918777169       23.9721883800
  H        17.6134257065        2.5494402710       22.3798519694
  H        17.4024486682        0.9965107059       22.8835835783
  C        12.4822169495        7.4923971429       10.1524169396
  N        12.0871219026        8.7409222285       10.1385798134
  O        11.1657714647       10.2918366076       11.5110974568
  S        12.6616499557        6.6597313020        8.5875109315
  C        12.0676188419        9.5588777660        8.9162862420
  H        12.3797775348       10.5859064946        9.2071148603
  H        12.9741381980        9.3252596530        8.3876705869
  C        10.7754375357        9.5840083490        8.1347072750
  H        10.0008736847        9.5131307010        8.8281909709
  H        10.5473797585       10.4740766304        7.6125130590
  H        10.7938149957        8.7924897362        7.3851527123
  H        21.7135645435        9.0413582402        3.9045588649
  C        22.3899908475        9.9220493527        3.7404626082
  H        23.2028435692        9.4727394930        3.2178061123
  C        22.8440338580       10.6637999029        4.9785939759
  C        21.3163091970       10.6860060990        2.9106862252
  C        21.8680042378       10.9069950597        6.0825169721
  H        23.6010826251       10.1174759069        5.4754886030
  H        23.3213001927       11.5857843112        4.6507787530
  H        20.5538507470       10.0265511508        2.5078626586
  H        21.7407538920       11.2376402998        2.0708381185
  H        20.9002342202       11.4248250712        3.5444947210
  C        21.1408998798        9.6282829490        6.4978854639
  H        22.4613125496       11.1469756170        6.9317864231
  H        21.2132352808       11.7172847967        5.7887504408
  C        20.3974772566        9.6493261557        7.8341338037
  H        21.6903369143        8.7177068239        6.3749900014
  H        20.4291262214        9.4476114690        5.6544486319
  C        19.1175101795       10.5648404388        7.6415181594
  H        21.0219807282       10.0976231731        8.5638907917
  H        20.0063212405        8.6703024573        8.1909748736
  C        17.9800851285        9.8094104737        6.9786456639
  H        18.8395185213       11.0202543715        8.6470635206
  H        19.3511389044       11.4901156596        7.0462426179
  C        16.6920372647       10.6355727387        6.8998107212
  H        17.7887803204        8.9253073511        7.5784099703
  H        18.2569599155        9.5916278165        5.9569174298
  C        16.9946674181       12.0273701185        6.3268720338
  C        16.3114565540       11.3226873005        8.2647329381
  C        15.3713644038        9.9299403058        6.3276576948
  C        16.8725699298       13.0939902121        7.1822808017
  C        17.4304295395       12.4827785023        5.0106420194
  C        16.3680750406       12.6907966563        8.3907112174
  C        15.8826929543       10.6550279928        9.3527593107
  H        15.4857153285        9.4469015581        5.3377654388
  H        15.0787748877        9.1421842291        6.9848873847
  C        14.1710197901       10.8606781185        6.2693327034
  S        17.2965805771       14.6460708950        6.4707159285
  C        17.6911225000       13.7934364495        4.9858676271
  H        17.6117761916       11.7131052507        4.2530224561
  C        15.9632209614       13.2607584485        9.5897559476
  H        15.6823452111        9.5893476764        9.2410071507
  C        15.4323771706       11.2557780371       10.5083564623
  H        14.5074577360       11.6985449642        5.6510536136
  H        13.8477490103       11.3536301520        7.2166816111
  C        12.9587263170       10.2244898396        5.4654684420
  C        18.2131076501       14.5436686371        3.8030012034
  C        15.4668518650       12.5784418594       10.7108645143
  H        16.1380845031       14.2799483975        9.5611626442
  C        15.0108860567       10.8786842663       11.7729331714
  H        12.0284261835       10.6659870914        5.9022611310
  H        12.9561579526        9.1782528322        5.6398720529
  C        13.0392979564       10.2474210275        4.0108170593
  C        18.3258593329       15.9177212465        3.5854931118
  C        18.6723698156       13.8117127179        2.6075936206
  C        15.0928126977       13.2878827911       11.9654988824
  C        14.8357607774       11.9090291569       12.6729053527
  S        14.7778188510        9.4023011052       12.6188260673
  H        13.7269359225        9.4764108792        3.6785342602
  H        13.3363055466       11.2280996259        3.7710576365
  C        11.7378599278        9.7685998491        3.3578709702
  N        18.0765403031       16.9089704098        4.5898715160
  C        18.6890962658       16.5558236992        2.3735773555
  C        18.9742710627       14.4322355098        1.3802651376
  H        18.6073713134       12.7588486003        2.6718212046
  C        13.7345215558       14.0223603843       11.8286888818
  C        16.1572953478       14.2080549591       12.6995503386
  C        14.5067375618       11.5877569204       13.9852280887
  C        14.4756399807       10.2401097018       14.0928080799
  H        11.3509399972        8.9497468601        3.9613724801
  H        10.9867115485       10.5622761005        3.3305623365
  C        11.8230251569        9.1175786546        1.9112085191
  S        18.2005839442       18.4010398574        3.9713574101
  N        18.6712136365       17.9403951498        2.4896353879
  C        19.0553524292       15.8630238909        1.2445351042
  H        19.1074456673       13.8430081704        0.5266487947
  H        13.8705565612       14.9123757372       11.1418499535
  H        13.4515347250       14.5030188649       12.7487167064
  C        12.5443292191       13.1508513434       11.4735369123
  H        16.3126217966       15.2003371877       12.2247840196
  H        15.6096023696       14.4583500173       13.6442157251
  C        17.4045890939       13.4674572034       13.1639532840
  H        14.5834102865       12.3979121937       14.7306651705
  C        14.2676431340        9.4273743226       15.3461797492
  H        10.7514363190        9.1308014379        1.6392563964
  H        12.0985427568        8.1100495067        1.9001384637
  C        12.7648287794        9.8187509782        0.8996060341
  C        19.2529479620       16.6047638955        0.0763785089
  H        12.8217841957       12.5203880129       10.6064851434
  H        12.3163728087       12.4091770770       12.2055823391
  C        11.5196328473       14.0605733003       11.0805667146
  H        17.9680401245       12.9159155813       12.3892904654
  H        17.1975165012       12.6771979276       13.9201861499
  C        18.4687201572       14.4059428115       13.7607246293
  C        14.0771655317        8.0427929229       15.3940048207
  C        14.1253353971       10.1974386492       16.6518351810
  H        12.7518934885       10.8867904340        1.1225716195
  H        13.7824870544        9.5585631844        1.0476606051
  C        12.4115993886        9.6290797605       -0.5662105316
  H        18.9511147739       17.6441935508        0.1997298974
  C        19.5312696950       16.2768804986       -1.2581419209
  H        11.8720505903       14.6300279845       10.2334328863
  H        11.2817187248       14.7418725010       11.8470766740
  C        10.3018062348       13.2742142161       10.7721420811
  H        18.8162703701       15.0231814548       12.9662023557
  H        18.0012111387       15.0937513208       14.4379907586
  C        19.7090016699       13.7604938467       14.4419887994
  N        14.2743372196        7.1996883502       14.3064525543
  C        13.8305906736        7.3705286718       16.5487533271
  C        13.7363614779        9.4898411191       17.8052387652
  H        14.1635969410       11.2825178852       16.7163391868
  H        12.1743167062        8.6208187543       -0.8882098572
  H        13.3170064470        9.9110639346       -1.0922227359
  H        11.5724528598       10.3064455852       -0.7824098091
  S        19.8945282534       14.7138659630       -1.9127337467
  C        19.4752366633       17.3743883265       -2.2382458767
  H        10.4863977476       12.4705528038       10.0735645604
  H         9.8771022967       12.8228592010       11.7006498452
  C         9.1725936812       14.0759615525       10.0691058615
  H        20.2874170642       13.2675985794       13.6461367549
  H        19.4311276643       12.9125793343       15.1346212936
  C        20.5886579171       14.7282298678       15.1560006981
  S        14.1637899938        5.6616674202       14.8217743909
  N        13.7747583773        5.9615072509       16.3769013772
  C        13.4872160777        8.0417676575       17.8056533749
  H        13.7337964617       10.0586701209       18.7355024187
  C        19.7640852798       15.4992189184       -3.4827651170
  N        19.7410842579       16.8609654940       -3.4485028449
  O        19.2918282331       18.5296494036       -1.9186502367
  H         8.6237291142       14.7446007869       10.8735243781
  H         9.6530986816       14.7661281737        9.3236106096
  C         8.1894641651       13.0509031034        9.4591771822
  H        19.8794674338       15.3943203485       15.6790897202
  H        21.2506042024       14.2498870146       15.8230152005
  C        21.4277934606       15.5586552326       14.1639329690
  C        13.1315684065        7.3539633556       18.9527085560
  S        20.4029096693       14.6561199266       -4.8888798991
  C        19.7195645312       17.6463760984       -4.6622763311
  H         8.6867924582       12.5245881335        8.6174635337
  H         8.0275676597       12.2696413479       10.1484252745
  C         6.9625913026       13.6749559587        8.8439294958
  H        20.9271525258       16.0193594786       13.3328587265
  H        22.1692111439       14.9257582290       13.6487510703
  C        22.2756421126       16.6331454618       14.9209826132
  H        13.4359434730        6.3104095043       18.8831202521
  C        12.5207884960        7.6711369927       20.1062698634
  H        20.4859879491       17.4928931871       -5.3332601147
  H        19.7659801607       18.6922092232       -4.3794018722
  C        18.3317737561       17.4045733606       -5.3775264319
  H         6.5593121396       13.0080884086        8.1326696399
  H         7.1841708817       14.7713101294        8.4172889100
  C         5.8112254813       13.8149751725        9.8394093344
  H        22.4110961799       16.3674217646       15.9576694428
  H        23.3199586080       16.6220837157       14.5315806718
  C        21.7549819308       18.0305917182       14.7591410424
  S        11.8851031121        9.2262000365       20.4920545553
  C        12.5545824922        6.7073463850       21.1984246320
  H        18.4723481401       16.5609643346       -6.0307848427
  H        17.9765505735       18.1964150312       -6.0750539041
  H        17.4809391287       17.2950725286       -4.7586021164
  H         5.3867922245       12.8550808141        9.9404998125
  H         6.3582772270       14.0583899136       10.8083560991
  H         5.2181588770       14.5602029795        9.3420042477
  H        21.9540056546       18.4311938798       13.7545846516
  H        20.6158487725       17.9718952602       14.8344061571
  H        22.1871455951       18.7420993721       15.4436210160
  C        11.5151629819        8.5062891819       22.0886232712
  N        11.9582031082        7.2684521951       22.3117634572
  O        13.0435659705        5.6128311078       21.1323861222
  S        10.4832418631        9.2072677184       23.3284148529
  C        11.9045058374        6.4729596348       23.5490728411
  H        11.7214087946        5.4849877290       23.2671979556
  H        11.0099805250        6.6280359013       24.2121226954
  C        13.2173379489        6.6067915068       24.2832155744
  H        13.9312894438        6.1250503788       23.6531430262
  H        13.1106551460        6.1977975707       25.3128675232
  H        13.5056127648        7.6032039926       24.4516893137
