352
 i =    91500, time =    91500.000, E =        25.1120099266
  H         9.9084193538        6.7915906087       32.0325112368
  C        10.9709952728        6.8251228916       32.2205083641
  H        11.0642644925        7.8768601634       32.2188119837
  C        11.7317824721        6.1959059132       31.0337390096
  C        11.1285678009        6.2300948211       33.5681065932
  C        11.0475006342        4.9222749101       30.4484043922
  H        11.8622504074        6.8271931472       30.1555312810
  H        12.6869289407        5.9893230894       31.4183191688
  H        10.6787971938        6.8573985020       34.3173131393
  H        10.6785157195        5.2287512630       33.5528960804
  H        12.1509669927        6.1013245775       33.7964907162
  C        10.0766325440        5.1939612525       29.2846913986
  H        10.4950400627        4.4344218132       31.2434623853
  H        11.6539473256        4.1263662851       30.0876696523
  C        10.8768230114        5.2169106598       28.0054328505
  H         9.5300498672        4.3219401804       29.1655241199
  H         9.4924330435        6.0946155052       29.4524350061
  C        10.0058640870        4.8341374622       26.7575708929
  H        11.7775926975        4.5871976026       27.9017749433
  H        11.2483260024        6.2476622196       27.8401374420
  C         8.9085040110        5.7898267647       26.2808220774
  H        10.7064428365        4.8949908698       25.8918006537
  H         9.6716860174        3.8140929944       26.8653717315
  C         7.7580618940        4.9862997254       25.7113310810
  H         8.4782604960        6.3653953656       27.1491439391
  H         9.2502681120        6.5625753844       25.6361965179
  C         7.2660990039        3.6983493308       26.4311658626
  C         8.1233081582        4.1830046906       24.5397096766
  C         6.5910312434        5.8448463324       25.2183179047
  C         7.4345674621        2.5997791052       25.5995484187
  C         6.8215062423        3.3110432421       27.7001264159
  C         7.9738435721        2.8697735297       24.3976534334
  C         8.6489141112        4.8015696920       23.4118415113
  H         6.1458958335        5.2567737123       24.3894116375
  H         7.1253896986        6.6533683930       24.7281590898
  C         5.6095649820        6.2741032817       26.3354160764
  S         6.9013062743        1.0778843439       26.3548739873
  C         6.6603804755        1.9725741825       27.8279458993
  H         6.7298060380        3.9516413758       28.5563937451
  C         8.2995669821        2.2595830020       23.2181976526
  H         8.6692102850        5.8900701133       23.4582077010
  C         8.9037167668        4.2154170694       22.1962987920
  H         6.0648054002        6.1563195878       27.2941130111
  H         5.4743629673        7.3254178880       26.3850987285
  C         4.3394050068        5.4471963103       26.3758969304
  C         6.1423364123        1.2551080630       29.0085488398
  C         8.7940288608        2.8848091066       22.0937286400
  H         8.0124818829        1.2233813476       23.1039723359
  C         9.1721427512        4.6169248218       20.9539611482
  H         4.6458607130        4.4830621474       26.6823561279
  H         3.8843758306        5.4000229278       25.3169671503
  C         3.3349163740        6.0531799105       27.3565598081
  C         6.0154620325       -0.1236283901       29.2026540916
  C         5.5885635484        2.0509280551       30.1538474736
  C         9.0616942187        2.2012390350       20.8000599553
  C         9.2142744299        3.5638728243       20.0986753340
  S         9.4350697224        6.1548495332       20.2130865311
  H         2.8865976843        6.9458192889       26.9249533788
  H         3.9616268796        6.2571188086       28.2675278449
  C         2.3405379427        5.0043119046       27.9344725837
  N         6.4167080650       -1.1420837009       28.3077811090
  C         5.7734540480       -0.6292263269       30.5108662162
  C         5.1277554824        1.4895157516       31.3353044224
  H         5.3452766961        3.0290741107       29.8723524410
  C         7.8812340650        1.4433725179       20.2422428045
  C        10.4593649981        1.4172252110       20.7449241410
  C         9.4721076467        3.9649424903       18.7930190329
  C         9.6136133734        5.3254433484       18.7268820322
  H         1.7493497690        4.6374715042       27.1295042390
  H         2.8143553956        4.0483116286       28.2666941445
  C         1.4054562910        5.3418288588       29.0543811666
  S         6.5025542533       -2.5774662085       29.0878536240
  N         6.0065720864       -2.0169555887       30.5911682153
  C         5.2585358016        0.0890382499       31.6338446830
  H         4.7704341927        2.2461269978       31.9914639437
  H         7.7096069620        0.4807575389       20.6920746342
  H         8.1263235493        1.1042971435       19.2916020644
  C         6.5978803120        2.2390005136       20.0121893513
  H        10.6957590953        1.4414084488       19.6497435579
  H        10.2870404851        0.4145273317       21.1164042120
  C        11.6076438904        2.1693442918       21.5724525324
  H         9.4823288253        3.3049912232       17.9711745066
  C         9.9364502618        6.1871588763       17.5045065822
  H         0.6983416541        4.5225454742       29.1761831934
  H         0.8063164061        6.1125288049       28.6211825171
  C         1.8815624654        5.6996838275       30.4170548431
  C         4.9295394593       -0.6013023812       32.9004693832
  H         6.6755366191        2.7078405138       19.0851276907
  H         6.2988273160        2.9883027105       20.7901784158
  C         5.4184514208        1.3120760058       19.7033375850
  H        11.3083747350        2.3249309952       22.6213348389
  H        11.7125271963        3.1112453511       21.0705503754
  C        13.0198694303        1.4404625514       21.5632985779
  C        10.1260421560        7.5733952862       17.4583106953
  C        10.1913898289        5.4539445905       16.2163202153
  H         2.6262593831        6.4427657915       30.2720901757
  H         1.1641697421        6.1035867728       31.1264179022
  C         2.4743511979        4.5056507823       31.0633936846
  H         4.8730162909       -1.6747637640       32.8746987671
  C         4.5350271901       -0.1430736154       34.1344209834
  H         4.8160809514        1.3590189930       20.5439836735
  H         5.7919700802        0.3287184616       19.5702663322
  C         4.6777094034        1.8452872079       18.4791035247
  H        12.8892380348        0.4701767513       21.9888455576
  H        13.3441569300        1.2346539864       20.5887196960
  C        14.0998916915        2.2714102514       22.1146488036
  N         9.9703950280        8.4858500664       18.5241112906
  C        10.4780007137        8.2373949869       16.2729972971
  C        10.5611379357        6.1364339685       15.0852314472
  H        10.1272169145        4.4247653074       16.2142920949
  H         3.1995987771        4.6938927795       31.7846812798
  H         1.7628466492        4.0487720764       31.6289316737
  H         2.9647307414        3.8959642669       30.2795222732
  S         4.3944093392        1.4782380907       34.7077778331
  C         4.4939842756       -1.1331878125       35.2735701835
  H         4.6272613349        2.9597156661       18.5369023864
  H         5.0549380607        1.6193029794       17.4620534477
  C         3.2017938653        1.2296463164       18.5632734674
  H        13.7922608147        2.6043449934       23.1488013086
  H        14.2274219668        3.2265565764       21.5604759978
  C        15.4218429805        1.5305729315       22.3855563014
  S         9.9272891939        9.9660335282       17.8787698034
  N        10.4630543793        9.6038555055       16.3621101978
  C        10.7311083603        7.6036675670       15.0577057542
  H        10.8030313939        5.6291403990       14.1912089932
  C         4.1058321514        0.8314889898       36.2962664575
  N         4.3012813417       -0.4654663647       36.4346608760
  O         4.8436618090       -2.3265556504       35.1180862746
  H         2.6192535062        1.3463185359       17.6467249819
  H         2.5886434489        1.9038510929       19.1955486300
  C         3.0579029860       -0.2201498685       19.0960399791
  H        15.2468180004        0.5853756072       22.6509822636
  H        16.0992143969        1.4407218699       21.5794133569
  C        16.1844402855        2.2678822873       23.4289284339
  C        11.1083009870        8.3996924325       13.9206220576
  S         3.8299843133        1.8037710171       37.8074814416
  C         4.2010557918       -1.1470534279       37.7005292085
  H         3.8951334648       -0.7329910171       18.5811700418
  H         3.3942353662       -0.2369911412       20.1649548166
  C         1.7017977680       -0.9544362823       18.8415609352
  H        15.5632257014        2.5846695890       24.3176784298
  H        16.6168115646        3.1759298405       22.9638787146
  C        17.3782941051        1.4765561270       23.9463834846
  H        10.9499826204        9.4602308075       13.9753981121
  C        11.4973588146        8.1452410359       12.6205958433
  H         3.6270939221       -0.7873253278       38.5787184703
  H         3.7720154265       -2.0487868372       37.4752452257
  C         5.5742874290       -1.4267535260       38.3821565651
  H         0.8422475693       -0.3481254129       18.8763633582
  H         1.6231977266       -1.6554158662       19.6845264599
  C         1.5295454632       -1.8978119175       17.6288248095
  H        17.8326145475        2.0577298291       24.7647360284
  H        17.0798209995        0.4956393598       24.4127207610
  C        18.4314462490        1.2420726140       22.8753112402
  S        11.8175907437        6.5618269481       12.0597241507
  C        11.6117320363        9.2561136245       11.5929952055
  H         5.6495127127       -0.9199896034       39.3536564857
  H         5.9353656855       -2.5013712040       38.2826406554
  H         6.2849549041       -0.9621087077       37.7097040555
  H         2.1653708579       -2.8352361857       17.7627986546
  H         1.8097632104       -1.3510653108       16.7330266479
  H         0.5202070974       -2.2735549643       17.6214390661
  H        19.4130526157        0.8894986535       23.1881923098
  H        18.5685976243        2.2827514147       22.4107742309
  H        18.0410016334        0.6167070633       22.1069212962
  C        12.1899049061        7.3579030776       10.4817120623
  N        12.2508081386        8.7000745175       10.4922052408
  O        11.4247906452       10.4065048211       11.7799049673
  S        13.0970203204        6.5749422969        9.2017610768
  C        12.3689099911        9.4700894450        9.3242062503
  H        12.8379456115       10.3908923171        9.6232839683
  H        13.0570762777        9.0906904332        8.5428846158
  C        10.9472990921        9.6418480199        8.6463433431
  H        10.5024165500       10.5689382372        8.9145803590
  H        11.0885222491        9.6280130956        7.5672500871
  H        10.2692477358        8.9137002041        8.9631975227
  H        21.2427294184       11.7308450260        3.4713389590
  C        21.2772345867       10.6264082210        3.4597004231
  H        20.3421420471       10.1189661925        3.7860917657
  C        22.4308568231       10.3536139264        4.3136126518
  C        21.6277498152       10.1640856005        1.9899161466
  C        21.8999936919       10.2339916969        5.7681360395
  H        22.8548413287        9.4517415403        3.8598861264
  H        23.1830668971       11.0996319189        4.2270348352
  H        21.9595186012        9.2012802427        1.8731068123
  H        22.4549463319       10.7328205909        1.6180492238
  H        20.7853457192       10.2791967862        1.2427539586
  C        21.1704837376        8.9191402811        6.0950375492
  H        22.7760844507       10.2501441389        6.4488765828
  H        21.2890965234       11.1525093669        5.9724890765
  C        20.0958560638        9.1436922607        7.1026074098
  H        21.9127114404        8.2421920359        6.5324659963
  H        20.7728853930        8.3855331870        5.2249938499
  C        18.7594513946        9.6150259233        6.4009183800
  H        20.4365259993        9.8128219679        7.8552593881
  H        19.8261739197        8.2550558078        7.6127232748
  C        17.7303064568        9.9584530615        7.5371991184
  H        18.9485133820       10.4531693892        5.7635333706
  H        18.3882247500        8.7564162388        5.8089939431
  C        16.5733895002       10.9111318829        7.1679417977
  H        18.2545517827       10.3515907840        8.4280597977
  H        17.2408852024        9.0146177854        7.9374852818
  C        16.9505145621       12.2400624115        6.5963972539
  C        16.1552859565       11.7122014199        8.3511339830
  C        15.3573691560       10.1627733437        6.5510706052
  C        16.7563954606       13.3935163522        7.3602949278
  C        17.4912037859       12.5973031875        5.3449560774
  C        16.2379122805       13.0953937619        8.5183455423
  C        15.6531278794       11.0474025778        9.4953159934
  H        15.7284128291        9.6765699811        5.6335197531
  H        14.8820601794        9.4378256326        7.1914605313
  C        14.2775463379       11.1624882781        6.2450255377
  S        17.2604412934       14.7838215529        6.6115933891
  C        17.5459745843       13.9299338266        5.1458269846
  H        17.7542011136       11.8067305351        4.6868710890
  C        15.8608522455       13.7086804560        9.7317796666
  H        15.6386582375        9.9991304021        9.4799053958
  C        15.4384793812       11.6953059196       10.6586149205
  H        14.6506785260       11.9577772767        5.7030882507
  H        13.8078311182       11.4696895729        7.1402687237
  C        13.2778847827       10.5536304004        5.2511834284
  C        18.0818070783       14.5125197476        3.8610213077
  C        15.5120208452       13.0262113759       10.8370867111
  H        16.0543151452       14.7399382960        9.8027950875
  C        14.9945907494       11.2382179899       11.8644246127
  H        12.3345055538       11.0586586637        5.3965131713
  H        13.2284802580        9.5331489033        5.7059200016
  C        13.7787680892       10.6960622785        3.8319276556
  C        18.1959039205       15.9051545369        3.5243918305
  C        18.5334484943       13.5699770189        2.8411382405
  C        15.0427253140       13.6648516460       12.0809002070
  C        14.7389627412       12.2926431514       12.7145783260
  S        14.7094484695        9.6904928398       12.5922534042
  H        14.8483346620       10.4834987751        3.7842233831
  H        13.8139374547       11.7620732234        3.5298871003
  C        12.9115375551        9.8809454056        2.8703970527
  N        18.0802078212       17.0192112295        4.4369648944
  C        18.3279251091       16.2667992781        2.1557024740
  C        18.7506280454       13.9837900526        1.5127050291
  H        18.5658841530       12.5343880599        2.9934950911
  C        13.6857551040       14.4096663296       11.8627881706
  C        16.0838761752       14.4735606817       12.8196961626
  C        14.3825037952       11.7961378310       13.9785820772
  C        14.3338827832       10.3723293457       14.1108403738
  H        13.0193016504        8.8092702234        3.0817261468
  H        11.9064526073       10.2102345916        2.9280111168
  C        13.4729639600       10.0414665013        1.4619172105
  S        18.1036179316       18.3370547828        3.5943501270
  N        18.3499897850       17.7409289271        2.0952599995
  C        18.6677927922       15.3946548205        1.1012072711
  H        19.0915095471       13.2753835914        0.7707475686
  H        13.9164567889       15.1900916044       11.1457250152
  H        13.4099036764       14.9359439640       12.7360289564
  C        12.5295684724       13.5998558265       11.4360599612
  H        16.1802017371       15.4022857655       12.2380984314
  H        15.6979240419       14.5914910327       13.8148372387
  C        17.4631662022       13.8049419486       12.9692440140
  H        14.2591080053       12.4490600194       14.8414163931
  C        14.1462419537        9.5475501447       15.3548468563
  H        14.4169290129        9.4723014518        1.2853726720
  H        13.8923449027       11.0319547692        1.3000712439
  C        12.3552197021        9.6989887009        0.4644352944
  C        18.9379071463       15.9246396091       -0.1830565423
  H        12.7681401519       12.9110624133       10.6659115184
  H        12.2431234809       13.0804913130       12.3198664352
  C        11.3814993248       14.4069331654       10.9685855774
  H        18.0502657491       14.1110712295       12.0621825674
  H        17.4101365992       12.7568262726       13.2202925369
  C        18.2758294206       14.6110731595       13.9968843458
  C        14.1294263745        8.1022662636       15.4127567545
  C        13.7983527254       10.2476939942       16.6154364656
  H        12.2550787412        8.6051100063        0.3878058930
  H        11.4570222612       10.2672649622        0.8008556878
  C        12.6847585432       10.0744161674       -0.9435018487
  H        18.7179790775       16.9862234243       -0.2222934586
  C        19.3123309045       15.5118161097       -1.4119347045
  H        11.8171955758       15.2535135560       10.4058322267
  H        10.7622457434       14.7280393533       11.7501825135
  C        10.3151015021       13.6270083138       10.1346150947
  H        17.9701659923       15.6886400494       14.0624951980
  H        17.9929562756       14.1839780893       14.9420201091
  C        19.7914293040       14.4469127542       13.7915975214
  N        14.2290222326        7.2769286101       14.2799166327
  C        13.8247178289        7.4368447880       16.5978033197
  C        13.4843056381        9.5463637507       17.7932962912
  H        13.6221852500       11.3049098292       16.5931613234
  H        11.7335439748       10.0743586277       -1.4953701082
  H        13.3804888342        9.3569644946       -1.4304153994
  H        13.0097954341       11.1348597707       -1.0047272104
  S        19.6337943060       13.9144742072       -1.8820405692
  C        19.2550991476       16.4707033078       -2.5573838761
  H        10.1585837600       14.1646203157        9.2001819525
  H        10.6635927369       12.6403685070        9.7725598776
  C         8.9961660882       13.4589451890       10.8890576429
  H        20.1814445783       14.9421685342       12.9211992292
  H        19.9327436270       13.3763396758       13.6343241464
  C        20.6039258855       14.9061023637       14.9740861030
  S        14.1306306872        5.7687973338       14.7928832092
  N        13.7955698040        6.0426417339       16.3631504412
  C        13.5452079052        8.0122958920       17.8375083653
  H        13.1301518855       10.1231325301       18.6236050182
  C        19.6425494357       14.5338720403       -3.6121044920
  N        19.5056880617       15.8416534843       -3.7558952790
  O        18.9022295543       17.6091199953       -2.5102772558
  H         9.3927055620       13.0473031765       11.8356090597
  H         8.5233324294       14.5033391225       11.0157197744
  C         8.1530867268       12.4833582568       10.1007666041
  H        19.9681445000       15.2625222433       15.7856863049
  H        20.8889019401       13.9841575142       15.4303979071
  C        21.8391252414       15.7503638398       14.7313916317
  C        13.1061213370        7.1896024278       18.9508218537
  S        20.0804269904       13.5995074677       -5.0785462165
  C        19.2721520609       16.5403266381       -5.0905404293
  H         8.2960586516       12.4720641739        9.0593472891
  H         8.2133133357       11.4842252994       10.4837081082
  C         6.6383670235       12.9010776284       10.1872942121
  H        22.2753534080       15.4335439536       13.7735351185
  H        22.6017284221       15.4837060457       15.4249368113
  C        21.5276305085       17.3017915121       14.7318261476
  H        13.4322919871        6.1455868909       18.8618625118
  C        12.7312565084        7.4838975182       20.2581093124
  H        19.7641438041       16.0431522641       -5.9253854417
  H        19.8448177992       17.4501118042       -5.1465516919
  C        17.8753153032       16.9204963577       -5.4145507601
  H         6.4879758376       13.5722793198       10.9464015539
  H         5.9666756705       12.0558406677       10.2674299137
  C         6.2245195704       13.7145506874        8.9224393198
  H        22.2140320391       17.9271005060       14.1152927850
  H        20.4766812742       17.3933492669       14.3371673244
  C        21.4471781410       17.8647443692       16.1162701864
  S        12.2089678999        9.0377015018       20.9419365887
  C        12.5742719739        6.2729709419       21.1419143066
  H        17.1630575305       16.8470723989       -4.6732189879
  H        17.4536856096       16.3561011591       -6.2728168340
  H        17.8419067042       17.9292694029       -5.7477674208
  H         5.2202056508       13.6085086791        8.6507834880
  H         6.2825180757       14.8328156854        8.9821724403
  H         6.7619924303       13.5013368365        8.0260380718
  H        20.6259955910       17.3964663178       16.6626340323
  H        22.4456410782       17.7816170143       16.5516164380
  H        21.2396859429       18.9274717433       16.0042743835
  C        11.8463793668        8.0553589212       22.3937510371
  N        12.2129302729        6.7304524659       22.3520955422
  O        12.9099778147        5.1307362190       20.8603664454
  S        11.1641642905        8.6638583484       23.8142017199
  C        12.0698667065        5.7883932593       23.5223143847
  H        12.1771524012        4.7165350608       23.1678860711
  H        11.0698991723        5.9098092011       23.8754700362
  C        12.9662252206        6.1104920656       24.6550855309
  H        12.3805241850        5.9275150482       25.5193148296
  H        13.2967932443        7.1097962351       24.5864112591
  H        13.8927075231        5.6148819218       24.7068639650
