352
 i =    85500, time =    85500.000, E =        24.8749443612
  H        10.5129603137        7.2992672121       31.7282965472
  C        11.5534647744        7.0613688317       31.8051414818
  H        11.9888027494        8.0613953725       31.9128894185
  C        12.0476776605        6.3662655849       30.6094334139
  C        11.8151781270        6.3294251837       33.1504521546
  C        10.9963411209        5.2570659623       30.3139018497
  H        12.1754575553        7.0492631509       29.7427305639
  H        12.9430206200        5.7777176122       30.7583876556
  H        12.1483636289        7.0045495223       33.9592904313
  H        10.9196489772        5.9229693028       33.5699788210
  H        12.4816693935        5.4476146578       33.1071729506
  C        10.2046248827        5.6297035678       29.0878956286
  H        10.3199343066        5.2531523505       31.1409130560
  H        11.3845884754        4.2801379106       30.1992639571
  C        10.9228232528        5.4595464321       27.7543823825
  H         9.2316644390        5.0352642018       29.1698376081
  H         9.7829468104        6.5656076803       29.0795302455
  C         9.9604567625        5.0820712376       26.6714644603
  H        11.8073105295        4.7735545689       27.8327241542
  H        11.3726491043        6.3280453962       27.3687811963
  C         8.7834336296        6.0017129295       26.3907545316
  H        10.4948653004        5.1721227721       25.7004695978
  H         9.6864673253        4.0800620754       26.7432407861
  C         7.6732902119        5.3333536319       25.5375262420
  H         8.3543948657        6.3595843488       27.3299198113
  H         9.1653758887        6.8920558332       25.8597543642
  C         7.1656130025        4.1106898563       26.2743149345
  C         8.0218320158        4.5604277918       24.2912791907
  C         6.5275449366        6.2492764114       25.0957880066
  C         7.3461750587        2.9919179406       25.4458978005
  C         6.5880944928        3.7579507658       27.5029370217
  C         7.8578075614        3.2754261739       24.2066003457
  C         8.5999716499        5.1027510757       23.1643493424
  H         5.8518954739        5.7845854848       24.2942482523
  H         6.8727279957        7.2178413544       24.6503964426
  C         5.5460965159        6.7519314685       26.2350057990
  S         6.7696275371        1.5368764015       26.1924241619
  C         6.4049466078        2.3906689058       27.6056008083
  H         6.4632820924        4.5821271653       28.2010155946
  C         8.2783213620        2.4969601377       23.1605982100
  H         8.6640547820        6.1941842529       23.2739637545
  C         8.9257732427        4.4853076601       22.0843707497
  H         5.8290069480        6.3100400514       27.2439943368
  H         5.6746529067        7.8624351892       26.2593212886
  C         4.0358503816        6.5465415611       25.9397461674
  C         6.0044119208        1.6994545732       28.8788664383
  C         8.8440766266        3.1117458800       22.0509649560
  H         8.1912803672        1.4212984718       23.1803648237
  C         9.2358819081        4.7651231057       20.8144194077
  H         3.9360849397        5.5517246737       25.5815792078
  H         3.7157703869        7.1848889806       25.1178934077
  C         3.1296498906        6.8006124806       27.1455241017
  C         6.1267339071        0.3182955562       29.1773140087
  C         5.5982207469        2.5568383248       30.0643561947
  C         9.1524120960        2.3372203017       20.7734956845
  C         9.3468281957        3.6474064935       19.9990798791
  S         9.5798707588        6.2503186688       20.0247851244
  H         2.5335464059        7.6756226206       27.1533745881
  H         3.8885831228        7.0664227219       27.8336332281
  C         2.4131830351        5.4883076269       27.5450337832
  N         6.6240164423       -0.6964129409       28.3228108343
  C         5.9210009150       -0.2089476393       30.4069622162
  C         5.3260512595        1.9456083665       31.2804238482
  H         5.6041303379        3.6332335691       30.0063058063
  C         7.9951777658        1.4386855467       20.3432965522
  C        10.4344182340        1.5361779598       20.9803980131
  C         9.6031157142        4.0064758098       18.6861339337
  C         9.8474292476        5.3581525410       18.5174454394
  H         2.0281101026        4.8960086276       26.7652182459
  H         2.9795774968        4.7855648085       28.1404367707
  C         1.2818165441        5.8923964098       28.4728022248
  S         6.5149729926       -2.1563846954       29.0367497808
  N         5.9395996422       -1.6269628015       30.4526942402
  C         5.4394080489        0.4457197220       31.5309247374
  H         5.2020622922        2.6934524214       32.0524566661
  H         7.7245044073        0.6608505261       21.0940530305
  H         8.3057925506        0.8886016164       19.4826736507
  C         6.8182545014        2.2885307433       19.9080229250
  H        10.6253591937        0.9846319830       19.9886519374
  H        10.2399798511        0.8390973608       21.7752331781
  C        11.6399970953        2.4356494125       21.3481941052
  H         9.6908894794        3.2012333458       17.9655442102
  C        10.0415173977        6.1018262013       17.2105630394
  H         0.6659210235        5.0612943694       28.7185326756
  H         0.6357499179        6.6623430182       27.9320049112
  C         1.7709872749        6.4400392744       29.8529433511
  C         5.2291655382       -0.1868099330       32.7846635263
  H         7.0995490727        3.0890354625       19.1981129998
  H         6.4329266058        2.7726466119       20.7942974559
  C         5.7312882696        1.3744668206       19.2693576075
  H        11.4468136995        3.1312267871       22.2453925463
  H        11.9927867890        3.1725942829       20.6367926890
  C        12.8540956156        1.5519367869       21.7391407872
  C        10.2278345994        7.5059961010       17.0412797632
  C        10.3088191695        5.3134127830       15.9509797881
  H         2.4952175666        7.1309470033       29.8339596318
  H         0.9242877735        6.8805189351       30.3693891390
  C         2.4888623906        5.4020125610       30.7387782997
  H         5.4304925652       -1.2062815726       32.8331139545
  C         5.0382397337        0.3443644149       34.0392387276
  H         5.2541734871        0.8651218295       20.1641568197
  H         6.1651808850        0.6552630936       18.5453502601
  C         4.6489429210        2.0951428606       18.4834106858
  H        12.5331661429        0.7993808715       22.3470545533
  H        13.3036622666        1.1650694908       20.8029006052
  C        13.9384607938        2.4037499258       22.4751401909
  N        10.0246534178        8.4607011139       18.0076979961
  C        10.5222700952        8.1298334932       15.8542398871
  C        10.5581471393        5.9432625247       14.6993655295
  H        10.3129007674        4.2193969437       16.0310410639
  H         3.0762148919        5.9033709333       31.4521778363
  H         1.7728592796        4.8376706808       31.2425595431
  H         2.9257706359        4.5244687419       30.1926229966
  S         4.5829872444        1.8840629066       34.4932632337
  C         5.0931661202       -0.5755100895       35.2478635806
  H         4.6070648095        3.1259235104       18.7477885931
  H         4.9354689624        2.2281178424       17.4167034949
  C         3.2993982575        1.3648571931       18.4706842330
  H        13.4348000652        3.1036262029       23.1986086678
  H        14.3468597219        2.9667703617       21.6831415009
  C        15.0585216527        1.6517076336       23.2204610404
  S        10.5584453725        9.9040075336       17.5107756416
  N        10.9317565450        9.4488977740       15.9879873901
  C        10.7783542531        7.4206411387       14.6566704953
  H        10.7374588009        5.2878070873       13.8662473096
  C         4.6246120867        1.4350910554       36.1512578564
  N         4.7743514419        0.0947682729       36.3514296222
  O         5.1746331154       -1.8155557329       35.1962625582
  H         2.6885326430        1.7092803498       17.6719102431
  H         2.7309059249        1.5344289366       19.3683032950
  C         3.3783421157       -0.1797996240       18.4060217015
  H        14.6269271293        1.3090295223       24.1461129784
  H        15.3458619801        0.8472040774       22.5689235002
  C        16.2319973847        2.5624663402       23.5756933681
  C        11.1773069724        8.1784802081       13.5502752211
  S         4.2605198311        2.5906554415       37.4375058282
  C         4.6164715444       -0.6449003377       37.6143430019
  H         4.1632049493       -0.4735727039       17.7345455234
  H         3.6390593105       -0.6666543797       19.2900322776
  C         2.0339689790       -0.9344827282       18.0750651695
  H        16.1952868985        3.0813851878       24.5196217206
  H        16.3317527004        3.3804781421       22.8036462280
  C        17.5004904466        1.8457814161       23.5631754671
  H        10.8111502113        9.1778021350       13.6023795864
  C        11.8913230010        7.9288391981       12.3726230561
  H         3.8158418510       -0.1051716930       38.0933894691
  H         4.3672774806       -1.6341427504       37.4301167539
  C         6.0205742868       -0.6591513796       38.3857150168
  H         1.2805339819       -0.2821324607       17.7919304416
  H         1.6728203519       -1.5647151382       18.8875808535
  C         2.1867336268       -1.8124703580       16.8614792927
  H        18.1906346040        2.2318172815       24.3657210444
  H        17.3577164588        0.8212699155       23.7649865911
  C        18.2633525477        2.1143229680       22.2558705995
  S        12.7800480385        6.5050668903       12.0081934971
  C        11.9836549264        9.0004643961       11.3856889237
  H         6.3598140302       -1.6921306985       38.6239861915
  H         6.8751606969       -0.3617579477       37.6854701802
  H         6.1050048482       -0.0375395185       39.2680905281
  H         1.6991028889       -2.7576822906       16.8589393589
  H         3.1970670126       -1.9632088991       16.5376305746
  H         1.6987179295       -1.3052461277       16.0455916251
  H        19.1428857483        1.5240099926       22.2532666595
  H        18.5664187894        3.1955412150       22.2682758164
  H        17.6196017674        1.9406254681       21.3790000527
  C        13.0085807833        7.2064351990       10.3638574835
  N        12.6822206268        8.5267604186       10.2853767420
  O        11.6604474348       10.1800139441       11.4862773366
  S        13.9011768665        6.6181429580        8.9202260260
  C        12.6948857073        9.2964966406        9.1204556373
  H        12.6580699240       10.3687164755        9.3887614992
  H        13.6444633320        9.2763375701        8.6044451240
  C        11.5058689957        8.8860198520        8.2424212750
  H        10.5319480500        8.9202519988        8.7818461193
  H        11.4806717301        9.5830279046        7.3908410657
  H        11.7152216688        7.9590320672        7.6946620382
  H        21.9013745896       10.0090854972        3.0139080547
  C        22.8542393495        9.4510311599        3.1844779779
  H        22.6614334268        8.3648431058        3.1139274306
  C        23.5027939750        9.7455983048        4.5240073136
  C        23.6439465654        9.9683332134        2.0835760172
  C        22.5533474081        9.7989230010        5.6900606157
  H        24.3233820833        9.0158214132        4.6514290933
  H        23.9490635533       10.7879332478        4.4736735342
  H        23.1027943620       10.2312505312        1.2458168156
  H        24.2142646865        9.1011143206        1.7743535394
  H        24.3160683925       10.7697082763        2.2778999123
  C        21.8622428053        8.4538412557        6.0140001816
  H        23.1971073818       10.0627293104        6.5678760591
  H        21.7833090297       10.5317420135        5.6185910863
  C        20.7052296138        8.6917653155        7.0243895545
  H        22.5137323714        7.8120060611        6.5848063426
  H        21.5771834652        7.9746764152        5.0788810565
  C        19.3567976554        9.3491823300        6.4494372959
  H        21.0450319164        9.3379824678        7.8455872718
  H        20.4858448205        7.8092874382        7.5846962434
  C        18.3818173817        9.7881745491        7.5702158550
  H        19.6337472104       10.2274306407        5.7945410810
  H        18.7889046175        8.7170017392        5.7703520666
  C        17.1599960108       10.7094846127        7.2449673333
  H        18.9217958653       10.4134381322        8.2865905547
  H        18.0564830116        8.9493931456        8.1323659590
  C        17.5071418734       12.0227333164        6.6005936367
  C        16.7587094568       11.3956596902        8.4841986201
  C        16.0293595612        9.8829593623        6.5472609050
  C        17.2214994837       13.1452727304        7.4142160348
  C        18.1396387792       12.4292501658        5.3751776761
  C        16.8481379059       12.7619196763        8.6506408059
  C        16.4194831118       10.6891375029        9.6627789764
  H        16.4032970036        9.1396645476        5.8400439179
  H        15.6742476347        9.2474644126        7.3151314689
  C        14.8682137034       10.7605424311        5.9995332296
  S        17.4425299971       14.6721082363        6.5293526309
  C        18.1060556587       13.7773398046        5.1338858697
  H        18.4615838650       11.6489026290        4.7847104451
  C        16.4784842661       13.3332730672        9.8214485458
  H        16.3275411404        9.6271930184        9.5166545955
  C        16.0343203620       11.2551451033       10.8064395865
  H        15.3087439583       11.6696559609        5.5700923701
  H        14.3770904068       11.0735280259        6.9364684762
  C        13.9813052198       10.0645242399        5.0722300044
  C        18.4398342924       14.4108196232        3.7929001647
  C        16.1640745667       12.6160551365       10.9672854294
  H        16.3153146725       14.4043692766        9.8843864118
  C        15.6069984511       10.8235067625       12.0322341014
  H        13.0449081189       10.5474802892        5.0694254247
  H        13.7123207893        9.0174358162        5.3788723590
  C        14.5044848415       10.1967425465        3.5792994716
  C        18.5107604692       15.8058915754        3.4807725967
  C        18.8184199531       13.5227021790        2.6775152761
  C        15.7453391456       13.2555730140       12.2404270502
  C        15.4060769087       11.9156177884       12.8975986965
  S        15.3363783662        9.2702244159       12.7828338405
  H        15.3219916647        9.4906095596        3.4149499583
  H        14.9009011386       11.1981276245        3.2956085520
  C        13.2759780902        9.8106730305        2.7036851431
  N        18.1843134298       16.8587935296        4.4257462645
  C        18.8522594889       16.2445439299        2.2564118490
  C        19.0471709388       13.9521326955        1.3809409711
  H        18.6185721214       12.4669729693        2.7661355987
  C        14.3927872865       14.0835104100       12.0816468716
  C        16.8938122142       14.0664645030       12.9338662313
  C        14.8164215201       11.4953959240       14.1086079527
  C        14.8460495160       10.1517826250       14.2348953175
  H        13.2645341939        8.7352201450        2.7898823423
  H        12.3025966122       10.1776624572        3.0807125635
  C        13.5457546545       10.1793532049        1.2799083474
  S        18.3877307896       18.2619285440        3.6752457745
  N        18.8580586663       17.6770063447        2.2445938793
  C        19.0960890511       15.4234373514        1.1071967157
  H        19.3051661587       13.1459168096        0.6124044437
  H        14.6431002159       15.0242324184       11.5682292593
  H        14.0673923220       14.2877266266       13.0709507251
  C        13.3140362737       13.3066842179       11.3998200613
  H        17.2225017078       14.8702058655       12.2745374911
  H        16.4988435940       14.6093771410       13.7597880455
  C        18.0357586127       13.1870931056       13.4534551680
  H        14.5659905717       12.2601686648       14.8435816417
  C        14.4806261772        9.4655396972       15.5396091187
  H        14.6594120765       10.1562772293        1.1300022112
  H        13.2733580113       11.2361766126        1.0801007537
  C        12.6929128634        9.3759046861        0.2729014543
  C        19.1983680286       15.9935345241       -0.2329855027
  H        13.6714959445       12.9208202959       10.4810129754
  H        12.9091862651       12.3858575935       11.8750990299
  C        12.0262929379       14.1063494830       11.0471803104
  H        18.7824140616       13.1063461565       12.6887323388
  H        17.8425336207       12.1388852801       13.7721171431
  C        18.7053996550       13.7021201078       14.7429803909
  C        14.3076979476        8.0747450203       15.6901439422
  C        14.1198428271       10.2278724143       16.7141605892
  H        12.6253352153        8.3790328470        0.6815381205
  H        11.6919711797        9.7401418530        0.3457005560
  C        13.2890239013        9.4165858384       -1.1515125580
  H        19.0510365830       17.0682812515       -0.1728976792
  C        19.5213121575       15.5145120049       -1.4649990760
  H        12.2661729918       14.8614187940       10.3142622884
  H        11.7111386220       14.5705269453       11.9472510897
  C        10.8651990959       13.2474161153       10.5933693870
  H        19.0803063512       14.6903299647       14.7384499978
  H        18.0702081260       13.7785241142       15.6093402048
  C        19.8201391546       12.7652473540       15.0922981034
  N        14.6866878463        7.1400987083       14.7115205002
  C        13.8141625274        7.4599735326       16.7764345610
  C        13.6935472333        9.6071623884       17.8769376122
  H        14.3032184203       11.2883380917       16.6964997399
  H        13.1470351850       10.4200686306       -1.5591214601
  H        12.9264702647        8.6991696299       -1.8794016022
  H        14.3913265535        9.4011245746       -1.0830733568
  S        19.8700375021       13.9008976723       -1.9540960609
  C        19.5722862788       16.5199304982       -2.5325624512
  H        11.2477995077       12.6075282333        9.7889864778
  H        10.5774454709       12.6640228349       11.4680320321
  C         9.6513069396       14.0232217475       10.0189353735
  H        20.1185723155       12.3044000833       14.1787257195
  H        19.5680752711       11.9870487431       15.7814110243
  C        21.0975081060       13.4045281502       15.6658591109
  S        14.1858431242        5.6649624241       15.2110736797
  N        13.5717659357        6.1277694037       16.6199578039
  C        13.4703922161        8.1687161445       17.9528867185
  H        13.3017428067       10.2896088716       18.6819488095
  C        19.9798270153       14.5667253172       -3.5669186516
  N        19.8991963535       15.9236549973       -3.6675137412
  O        19.2934909371       17.6745854543       -2.3427099855
  H         9.2355126607       14.6686960375       10.6939091448
  H         9.9394870863       14.5834929239        9.1392245833
  C         8.6234626895       13.0091406926        9.6364332447
  H        20.9590730782       13.6733194463       16.6610647108
  H        21.7384828377       12.5072260121       15.8651573634
  C        21.7413853152       14.5443872390       14.9414795519
  C        12.9939102592        7.4027585337       19.0889642855
  S        20.3742397129       13.6380337417       -5.0077794991
  C        19.8096253876       16.6204158169       -4.9392468958
  H         8.9101288012       12.5835529141        8.6795546814
  H         8.4859314504       12.2618697976       10.3273363748
  C         7.1954955284       13.6038786189        9.4756941893
  H        21.0866121655       14.7232716825       14.0513678233
  H        22.6455890203       14.1589778999       14.5756699701
  C        21.9449761512       15.8810562488       15.7806624343
  H        13.1879914780        6.3596944245       19.0573379274
  C        12.6344751579        7.8464677956       20.3520147039
  H        20.7349589855       16.3112542703       -5.5399306714
  H        19.9171752704       17.6943929202       -4.8411909202
  C        18.4346007453       16.4165707326       -5.7003636458
  H         6.7589540597       13.1342795028        8.6105603491
  H         7.3070875834       14.7273857890        9.3592305873
  C         6.2592047514       13.4098879182       10.6011287991
  H        20.9497496822       16.1842979796       16.1007889801
  H        22.6104261229       15.7591854283       16.5960276157
  C        22.5445614148       17.0275709387       14.9569993603
  S        12.1380528336        9.5002505585       20.9130961943
  C        12.5508207468        6.8454001256       21.4593197928
  H        18.2143612860       15.4157776408       -6.0083729729
  H        18.3515650701       17.1951497026       -6.4800207238
  H        17.5804469789       16.5822715036       -5.0008804645
  H         5.4389127188       13.0006145989       10.1653787728
  H         6.7209842775       12.7889608246       11.4151464659
  H         5.9787906370       14.3530370905       10.9182045030
  H        22.5619725727       17.9860249700       15.4763973590
  H        23.5415834421       16.8368701289       14.6739773515
  H        22.0234720801       17.1136816153       14.0363908599
  C        11.8190921713        8.7140752785       22.4579500133
  N        12.1171128687        7.4395525923       22.5800093756
  O        12.7637274830        5.5909971590       21.3602845070
  S        11.4178737289        9.5295118271       23.9850306014
  C        11.9457169306        6.6373959013       23.8393640574
  H        11.4837760487        5.7799403290       23.4435776494
  H        11.2146681015        7.1122067859       24.5419807876
  C        13.1588863127        6.3458883942       24.5487316134
  H        13.0515449261        6.5859443015       25.5659274105
  H        14.1784034649        6.6838232418       24.2022780718
  H        13.0881692866        5.2729037303       24.5821352248
