352
 i =    62800, time =    62800.000, E =        25.1762972870
  H         9.8137717197        4.8609982432       31.4765664941
  C        10.1634007881        5.7347066787       32.1088454921
  H         9.2750996314        6.1611504740       32.4608485481
  C        10.8154045924        6.7834839994       31.1893910181
  C        11.0635586447        5.3499550744       33.2462678588
  C        11.1553905793        6.0692116909       29.8958197553
  H        10.1508177050        7.6147327911       30.9917673385
  H        11.6665389611        7.1799918337       31.7042023296
  H        10.6334439245        4.5642207354       33.8092185112
  H        11.9916188879        4.9480502259       32.7934843166
  H        11.3438066426        6.0774763517       33.9538943603
  C         9.8996325493        5.7134881570       29.0773609764
  H        11.6002940762        5.0892122299       30.1075621018
  H        11.8958334052        6.6965754979       29.4466115754
  C        10.2771213055        5.8848448053       27.5762710594
  H         9.7712060830        4.5873601590       29.2646511307
  H         9.0897759389        6.3836374547       29.4035087808
  C         9.4722776010        5.2052254515       26.5222813933
  H        11.2653442702        5.4280468155       27.5345182358
  H        10.4134842321        6.9391463473       27.3745099833
  C         8.1255598471        5.8368748806       26.2473337581
  H         9.9987802484        5.0730213408       25.5660287697
  H         9.3179796092        4.2024332955       26.8308565150
  C         7.1904743777        4.9918864173       25.3248035408
  H         7.6036670985        5.9194488201       27.2642290212
  H         8.2651975689        6.8693682000       25.9272793757
  C         6.9245395350        3.6825613310       26.0160366948
  C         7.7963765304        4.2332215347       24.1829241676
  C         5.8653069208        5.6650257262       24.8591532407
  C         7.1600936395        2.6011835239       25.1954146499
  C         6.5314852307        3.3637100551       27.3453755935
  C         7.7194378321        2.9203682355       23.9711428054
  C         8.2701942393        4.9578573838       23.1404659080
  H         5.5919740300        4.9309857366       24.1451475326
  H         6.0331970528        6.5924933518       24.3507872035
  C         4.6675683619        5.7097983337       25.7609042241
  S         6.7307924039        1.1467054082       25.9962115436
  C         6.3325932977        2.0398071294       27.4643977937
  H         6.4166287860        4.1302112291       28.1041020400
  C         8.1469094203        2.3320428364       22.8348702123
  H         8.2038639548        6.0651248615       23.2018802844
  C         8.7910950465        4.4332326706       21.9609790264
  H         4.5935868658        4.7784515848       26.3250092854
  H         4.7715511582        6.5196719335       26.5081308361
  C         3.3932289225        5.9981893291       24.9901445384
  C         5.7131469955        1.3713904150       28.5980934600
  C         8.6877300765        3.1055573565       21.7686383224
  H         8.1849157317        1.2726514697       22.8102721140
  C         9.2249095915        4.8518650608       20.6658329283
  H         3.3072009606        5.2220870414       24.2714095323
  H         3.5573355877        6.9578825820       24.4309683943
  C         2.1871842848        6.2357030478       25.7854746464
  C         5.7012597969       -0.0194157756       28.8330693028
  C         5.3967553041        2.2016289888       29.7232690123
  C         9.0842972125        2.3663991906       20.4982022305
  C         9.3524814209        3.7642851771       19.8448577375
  S         9.2253208848        6.3454589957       19.8391672675
  H         1.5402812611        6.8226558538       25.1081949299
  H         2.4094790515        6.9283148240       26.6396863839
  C         1.4779821772        5.0062246385       26.3333290368
  N         6.1386278171       -0.9743608791       27.8947927765
  C         5.3133751078       -0.6308574677       29.9838051118
  C         5.1198518616        1.5795108485       30.9719625271
  H         5.4705448184        3.2206789987       29.7147563741
  C         7.9083292572        1.5548362679       19.9513678369
  C        10.3093606957        1.5177821607       20.7535843822
  C         9.6005278109        4.1465379131       18.4586706534
  C         9.6758043197        5.4895764863       18.3330741243
  H         0.6044573672        4.7479580048       25.6787826581
  H         2.0624519929        4.0823523800       26.3545714503
  C         0.9884164643        5.1975439855       27.7624320097
  S         6.1986005056       -2.3829342627       28.5570011034
  N         5.4534699496       -2.0115875426       29.9991609066
  C         5.0571754960        0.0873518862       31.1598215412
  H         4.9229359283        2.2369906426       31.8471012884
  H         7.6787379461        0.7329938731       20.5773624931
  H         8.0193657553        0.9361925735       19.0851578169
  C         6.6723766971        2.4647576683       19.6936837399
  H        10.5725913697        1.0137584406       19.8492812213
  H        10.0791772146        0.7557789773       21.4960009461
  C        11.6306773053        2.3400412603       21.1009530580
  H         9.8146863387        3.3711493975       17.6620853958
  C        10.0765184041        6.2071490710       17.0453895717
  H         0.2428572928        4.3724467231       27.8120766729
  H         0.6025296632        6.1748939505       27.8821046471
  C         2.0134864777        5.0694071447       28.9081247350
  C         4.9725341480       -0.5966040951       32.4572427534
  H         6.7353961170        3.1698455047       18.8516878541
  H         6.4517672832        2.9862518927       20.6216209005
  C         5.4768603069        1.5667605878       19.5419924702
  H        11.3748226088        3.2777611531       21.6771296660
  H        12.1459657805        2.7721336027       20.2381881085
  C        12.8445571455        1.6273050710       21.7214062557
  C        10.1453026593        7.6085063642       16.9352724462
  C        10.3960813415        5.5344199746       15.7767731154
  H         2.4344682599        4.0612089634       28.9861794467
  H         2.9015233391        5.6204277562       28.7241466755
  C         1.4444979483        5.4301170738       30.2320429313
  H         5.1824969535       -1.7048351270       32.3881060767
  C         4.6101036204       -0.2397160368       33.7555696823
  H         4.6230252355        2.2172977458       19.8204332923
  H         5.5379093857        0.8053178803       20.2048714410
  C         5.2314549808        1.0791566893       18.2046121549
  H        12.5791750072        0.7346162384       22.3037318329
  H        13.4701590543        1.2506636403       20.8613863072
  C        13.6949092694        2.5546867553       22.6510006661
  N         9.9057390757        8.5549169842       17.9804358064
  C        10.5071048352        8.2411059555       15.7420786376
  C        10.7529327149        6.1215672624       14.5732571846
  H        10.4203586993        4.4877422596       15.8126663814
  H         0.9727016040        6.4531980850       30.3344904316
  H         0.6228560761        4.7508580313       30.4706459218
  H         2.2843460960        5.2276134827       30.9566738399
  S         4.1479388794        1.3353015492       34.2423266086
  C         4.5594774072       -1.2548783331       34.8638591387
  H         5.2895213919        1.9005319143       17.5262065885
  H         5.9834170328        0.3133193958       17.9094410676
  C         3.8611712708        0.4504792733       18.0155932505
  H        13.3574787192        2.6067271852       23.6554542262
  H        13.9056020832        3.5009564970       22.1708649625
  C        14.9925909283        1.8882496267       22.9722373804
  S        10.0874792040       10.0662695858       17.3967376784
  N        10.4335389099        9.6719595284       15.8132747085
  C        10.7676490295        7.5888116239       14.5554002545
  H        10.8744680899        5.5911376194       13.7080359648
  C         4.0332785684        0.7272685445       35.9311769674
  N         4.1849934547       -0.6642137351       35.9802204274
  O         4.7496261398       -2.4275196404       34.7290669367
  H         3.2079602855        1.3670004503       17.8260760539
  H         3.4969466449       -0.0255248145       18.9307873257
  C         3.7596567629       -0.5675205169       16.9078047890
  H        14.7355784599        0.9317157510       23.3572724105
  H        15.4512880127        1.5848370507       22.0287143643
  C        16.0068658791        2.7107964704       23.8270386600
  C        11.0578918036        8.3184482329       13.3701890842
  S         3.4966986465        1.4745197454       37.3738404497
  C         3.9865659920       -1.4541643917       37.1799294656
  H         3.9308594064       -0.0923666737       15.9135636917
  H         4.4175138198       -1.4033837136       16.8972235288
  C         2.2936984542       -1.1037078466       16.9589992318
  H        15.6494209436        2.9945075666       24.8419456106
  H        16.0873235965        3.6698489002       23.3000058280
  C        17.3244123935        1.9502897359       24.0534453059
  H        10.8442661740        9.4205205234       13.5045573176
  C        11.5433287333        8.0619022731       12.1489457769
  H         3.2086202685       -1.0392165349       37.7518589626
  H         3.5903324661       -2.4855275064       36.9969354070
  C         5.3494278706       -1.5218162381       37.9201044536
  H         1.7570599331       -0.8825929760       16.0559134024
  H         1.6327010465       -0.7678602262       17.7062481267
  C         2.2456836340       -2.6543216177       16.8737833691
  H        17.8630805998        2.5178779998       24.8279291215
  H        17.2492470185        1.0275556836       24.6015197981
  C        18.0355480797        1.8727209613       22.7326693707
  S        12.1759517224        6.5598320538       11.5917819526
  C        11.6774535613        9.1224364778       11.1226965564
  H         5.8788955799       -0.6234070898       38.0907237334
  H         5.2588051806       -2.1034021562       38.8181224798
  H         5.9760683031       -2.2003862904       37.3551545691
  H         2.5534633309       -3.1157505578       17.8534090027
  H         2.6147531811       -3.0435055273       15.8666756808
  H         1.2024044417       -2.9547527678       16.9060845163
  H        19.0580753179        1.6461446630       22.9278910241
  H        17.8475502309        2.8070008115       22.1863713567
  H        17.5837529885        0.9676554925       22.2044893134
  C        12.5358221323        7.3589630174       10.0206970188
  N        12.2699625824        8.6796202630       10.0026974300
  O        11.3223184167       10.2680096082       11.3622091808
  S        13.0695957033        6.5261649389        8.5720964824
  C        12.3337749528        9.5502984788        8.8292925380
  H        12.3476824467       10.5939955366        8.9814435931
  H        13.2347120121        9.4025781272        8.2558859497
  C        11.0349134426        9.2382468438        8.0403445983
  H        10.2981373677        8.6169481511        8.5181270551
  H        10.5071331305       10.1418817358        7.7263567012
  H        11.3487269011        8.8360417579        7.0546130289
  H        22.1651102601        9.3644020220        4.1043329273
  C        22.3383569596       10.4594260692        4.0852493423
  H        23.0412995768       10.6784608206        3.2275307400
  C        23.0201995756       10.7517320420        5.4815536848
  C        21.0613395256       11.2015252461        3.7916159486
  C        21.9694647018       10.8301507052        6.5883557971
  H        23.6621120817        9.8625108316        5.7454396983
  H        23.6765464945       11.6518667379        5.4007735927
  H        20.2539999774       10.7344224084        4.3617485909
  H        20.6161759745       11.1099037070        2.7818898136
  H        21.1169647692       12.2892742958        4.0106102437
  C        21.2122960375        9.4983015599        6.7825315848
  H        22.4546400893       11.1111410984        7.5076961408
  H        21.2379004316       11.5432815718        6.2602627744
  C        20.2926571992        9.5742099262        7.9998216607
  H        21.9519510906        8.6828387560        6.9307958171
  H        20.6393481853        9.2566076830        5.8985632994
  C        19.1344984903       10.5214944863        7.8745884182
  H        20.7767256890        9.8789190943        8.9340593096
  H        19.8081666257        8.6289275830        8.2753001109
  C        17.9771811259        9.8047592699        7.1063513906
  H        18.7849174535       10.8213433713        8.8590779394
  H        19.4361246094       11.3156465193        7.2226274309
  C        16.8003281849       10.7802790440        7.0007036399
  H        17.7081981491        8.9766916818        7.7295621701
  H        18.2873560942        9.4988787625        6.0883488259
  C        17.2388968899       12.1259886893        6.3363782527
  C        16.3979582353       11.5882959845        8.2313353113
  C        15.6770930777       10.1689073875        6.1645623099
  C        17.1413013587       13.2181334119        7.1092825332
  C        17.8078997577       12.5079426069        5.0963157721
  C        16.4904891072       12.9317420804        8.2840104844
  C        15.8309211602       10.8854167619        9.3308823291
  H        16.0385009719       10.0281362722        5.1260995640
  H        15.3900754976        9.1696748786        6.5042605402
  C        14.4722197619       11.1261637573        6.1508211150
  S        17.6066131338       14.6953704209        6.4125688687
  C        18.0115495934       13.8614298359        4.9597680486
  H        18.0679475352       11.6907514387        4.4308694183
  C        16.0213842773       13.4582250950        9.4784215711
  H        15.5488416336        9.8513979592        9.2208312717
  C        15.4530003855       11.4488155361       10.5331110534
  H        14.6452660088       12.1243860301        5.8772773694
  H        14.1156896196       11.1665283884        7.1813055259
  C        13.2732592704       10.6638379401        5.3099438266
  C        18.3883035130       14.5315871076        3.6935001808
  C        15.4838276427       12.7874773387       10.6296724884
  H        15.9489594610       14.5755676997        9.4496483185
  C        15.0326599614       10.9939822548       11.7603650300
  H        12.4499474163       11.3824563528        5.5561482332
  H        12.8800405550        9.7795047828        5.8398285805
  C        13.5248626575       10.6003142427        3.7727807978
  C        18.3368726742       15.9645039509        3.3950122729
  C        18.8823545679       13.6582596601        2.5974885145
  C        14.9253357670       13.5006829067       11.8551208379
  C        14.6753078096       12.1002982588       12.5480282824
  S        14.7892177157        9.5030968502       12.5496908206
  H        14.0107292649        9.6404081455        3.5162049137
  H        14.1495582208       11.3941562221        3.4315262090
  C        12.2123685521       10.5647320695        3.0532228140
  N        18.1061445149       17.0178370629        4.3121500417
  C        18.5160703451       16.4102692853        2.1175366415
  C        19.2167933305       14.2086814273        1.4037819472
  H        18.9656689804       12.5897281024        2.7855829465
  C        13.6551342274       14.3575745092       11.4940175123
  C        16.0456343097       14.4044690207       12.5373934316
  C        14.2968367993       11.6848332020       13.8554361906
  C        14.1957108859       10.3552197196       13.9888859283
  H        11.5233857637       10.0408155753        3.6321744070
  H        11.7895344637       11.5072002859        2.8362492472
  C        12.2244238191        9.8041486951        1.6581704357
  S        17.9368110562       18.4035867110        3.4515375788
  N        18.3603757946       17.8129897094        2.0068798282
  C        18.9936908151       15.5943871346        1.0756719684
  H        19.6256857756       13.6320060171        0.5375570188
  H        13.9376120073       15.0618605939       10.7922068776
  H        13.3455867651       14.8980338844       12.3682772740
  C        12.3770316075       13.5057649157       11.0526385047
  H        16.3106001026       15.1561293532       11.7893925532
  H        15.4900897224       14.7997870364       13.3828070919
  C        17.3354067341       13.6655624997       13.0315270450
  H        14.0962519584       12.4209483214       14.6652787537
  C        13.9701653716        9.6668904195       15.2652585325
  H        11.1959078516        9.8811672394        1.2739539024
  H        12.4300943915        8.7333987964        1.7522877926
  C        13.2882471278       10.2894716318        0.7013744878
  C        19.2351802231       16.2626579092       -0.1735505375
  H        12.5415258281       13.0154642342       10.0569522584
  H        12.2066947880       12.6273418924       11.7222013680
  C        11.1677514699       14.3975622349       11.0109331240
  H        17.7641238569       12.9648122656       12.3109989697
  H        17.0924855160       12.9715127059       13.8393620275
  C        18.4540603494       14.5858477963       13.4937110138
  C        14.0899268999        8.2434410624       15.4014017768
  C        13.7625933635       10.4159645723       16.5485518227
  H        13.5140853135       11.3684666996        0.9242874001
  H        14.2306959313        9.7575590159        0.8801538881
  C        12.9984579912       10.1122702978       -0.7932548335
  H        19.2713344948       17.3453144881       -0.2367225127
  C        19.4767345051       15.9524713902       -1.4808402462
  H        11.3477205510       15.1084341105       10.2850040872
  H        11.0462515876       14.8928463394       11.9481848632
  C         9.9115972211       13.6162791930       10.5962675395
  H        18.6177740882       15.2464115867       12.5718923867
  H        18.1201976125       15.3209848778       14.3009132839
  C        19.6866136048       13.7985604807       13.9100342570
  N        14.1858665076        7.2883441723       14.4034100396
  C        13.8722992066        7.6401611311       16.6174120228
  C        13.5632347771        9.7977235231       17.7585997852
  H        13.5761985139       11.4602668683       16.4657936752
  H        13.6298610726       10.7242963893       -1.4439488667
  H        11.9428712625       10.1619339148       -0.9518844893
  H        13.2649703563        9.0194370601       -0.9936104003
  S        19.7474332551       14.4703629669       -2.1206881166
  C        19.4217447060       17.0002662966       -2.4996787898
  H        10.0322128853       12.6892638235       11.0868706006
  H         8.9638299898       14.0486276732       10.9781861903
  C         9.8251597944       13.4468636062        9.1199121306
  H        20.1203984828       13.2107634322       13.0419350254
  H        19.3579684762       13.0170279919       14.6169547740
  C        20.7564243544       14.6687620692       14.6192775744
  S        14.1624345868        5.7917819771       15.0590417863
  N        13.9819894985        6.2595851429       16.5943030890
  C        13.5291157063        8.3072410181       17.7918075964
  H        13.2807322485       10.3272913115       18.6731981327
  C        19.8838165417       15.2263913927       -3.6931933313
  N        19.7639569335       16.5963041626       -3.7105322635
  O        18.9298418540       18.1221628361       -2.3181402153
  H         9.9358390507       14.3701326852        8.4847770376
  H        10.7602371636       12.9091327023        8.8944996699
  C         8.5961231523       12.6373408400        8.6648989739
  H        20.2329035232       15.4628141386       15.1372246897
  H        21.2301338438       13.9903620422       15.2943924458
  C        21.7675770346       15.3009373503       13.6418897604
  C        13.1407636625        7.5175317826       18.9573675315
  S        20.5077617110       14.4042574633       -5.1277145334
  C        19.8514940583       17.5339137812       -4.8128279512
  H         8.9066717392       12.0850203233        7.7993767438
  H         8.2926697422       11.9462672788        9.3981439064
  C         7.3334749587       13.4825636393        8.4852136825
  H        21.2697707437       15.9040012595       12.8788201461
  H        22.4923363864       14.5423639815       13.2179053953
  C        22.5752173350       16.2812691179       14.5055832428
  H        13.5415656452        6.5496113393       19.0118119257
  C        12.6461049240        7.8325348469       20.1717302326
  H        20.5806205297       17.2223030228       -5.5571343202
  H        20.0963272013       18.5421509968       -4.5459179922
  C        18.4627041033       17.5147473285       -5.4974562323
  H         6.9326258452       13.1357022331        7.5064238319
  H         7.5061452851       14.5827670317        8.3197145896
  C         6.3182580889       13.5107021019        9.6414169511
  H        22.6569085889       15.9668309323       15.5629872782
  H        23.5917002850       16.2027524265       14.1860559601
  C        22.2355718130       17.7493206263       14.2305194242
  S        12.1506741576        9.4102222846       20.8052338364
  C        12.4706090501        6.7178140482       21.1249550153
  H        17.6087654436       17.2629081895       -4.8216843365
  H        18.3368391579       16.7809332177       -6.3400884943
  H        18.2741995071       18.5255418795       -5.8637353044
  H         5.5765375894       12.7416957922        9.6765678949
  H         6.7961956438       13.6605903502       10.6722809088
  H         5.7127812400       14.3754264476        9.2797389373
  H        22.6011509922       17.8847417910       13.2331666174
  H        21.1836667872       17.9338316013       14.1914807079
  H        22.6951058782       18.3356379246       15.0090229326
  C        11.7095608987        8.5629937644       22.3381116252
  N        11.8138962843        7.2127516632       22.2405637490
  O        12.6364035066        5.5622814906       20.8258329351
  S        10.9500987457        9.3893350916       23.7409965900
  C        11.5777486638        6.3705701949       23.3988642061
  H        11.5988723457        5.3225420954       23.0599276800
  H        10.5976827911        6.5264231877       23.8132165695
  C        12.7882519740        6.5596496950       24.3377107785
  H        13.7126979949        6.5703857389       23.8696065485
  H        12.8083616960        5.7231092109       25.0438117856
  H        12.7105919834        7.4599221508       24.8600153215
