352
 i =    84500, time =    84500.000, E =        24.5948708090
  H         9.9221277793        6.6092519069       32.4851711562
  C        10.9896967873        6.4093044269       32.6091999859
  H        11.4919605841        7.2815659841       32.9380007214
  C        11.6642465788        5.9772892800       31.3396786233
  C        11.1060488962        5.4061424703       33.7431359496
  C        10.7768547837        5.2588546587       30.2501396674
  H        12.1948309816        6.8150186064       30.9795118243
  H        12.3937329746        5.2644384427       31.6067568131
  H        10.5845310328        5.6871488863       34.6637332088
  H        10.6426810212        4.4859189181       33.4664095131
  H        12.1405014115        5.1261566904       33.9878077408
  C        10.3485926145        6.2506169465       29.1169601922
  H         9.8832305072        4.8950265409       30.7840404825
  H        11.2818657309        4.4177985767       29.8596481951
  C        10.8298311512        5.7593120970       27.7453279520
  H         9.2871093275        6.5392513302       29.2453040109
  H        10.7497732440        7.1767128208       29.2741117351
  C         9.6938001753        5.0870286663       26.9969924405
  H        11.6898381065        5.1595757412       27.8982220606
  H        10.9833097958        6.7291846297       27.2352189647
  C         8.5421729038        6.0386722964       26.5010258075
  H        10.2364703457        4.5817943233       26.1656284766
  H         9.2675050013        4.3931461178       27.6645974696
  C         7.4766914406        5.2922473612       25.6635259192
  H         8.2023151654        6.6408279434       27.3271050050
  H         8.8714191386        6.8151676969       25.8394266304
  C         7.1717499478        3.9148743107       26.2666250915
  C         7.9428188427        4.6049698448       24.3854510219
  C         6.2138046617        6.1431636627       25.3200398613
  C         7.4999396812        2.8474227458       25.4448518201
  C         6.7434847105        3.4496663203       27.4967827807
  C         7.9893727534        3.2246499219       24.2345169291
  C         8.5498675343        5.2617000520       23.3173370871
  H         5.5871443988        5.6884044386       24.5268237670
  H         6.4182986498        7.0597460284       24.7342817221
  C         5.3733309578        6.5828774383       26.5091513885
  S         7.2850643823        1.2979558565       26.1429803478
  C         6.7562191260        2.0659075042       27.5778092301
  H         6.4046509745        4.1298932296       28.2527174041
  C         8.5022242349        2.6741238566       23.0637642538
  H         8.5249132892        6.3035999425       23.4425348129
  C         8.9955418581        4.7632435111       22.1694260870
  H         5.7601612018        6.0439650040       27.3683826591
  H         5.4282212848        7.6387476334       26.7709689387
  C         3.8443078528        6.3132671662       26.2394776050
  C         6.3516228834        1.3210959687       28.8339379631
  C         8.9153442519        3.4092209222       21.9923198764
  H         8.4509068283        1.6284929975       22.8825621621
  C         9.4862850093        5.2004786414       20.9666627140
  H         3.7305769199        5.2512806412       25.8579319364
  H         3.6790505731        7.1179854781       25.4435294975
  C         2.8509081188        6.4795583405       27.3589088806
  C         6.4289680163       -0.1015994249       29.0662080799
  C         5.7672674745        2.1084641228       29.9267158273
  C         9.4065324331        2.6724435402       20.7498591181
  C         9.6385383872        4.0913710134       20.1288934119
  S         9.7022802753        6.6920416731       20.2169153832
  H         1.9542676586        6.8878286988       26.8719618978
  H         3.1230050983        7.3511134690       27.9342472874
  C         2.4883937454        5.1481168169       28.1706410588
  N         6.8693019850       -1.0747170958       28.1151959717
  C         6.1353192677       -0.6638933172       30.3272944013
  C         5.7416419123        1.6395833911       31.2189684627
  H         5.3109729466        3.0994440044       29.7741479466
  C         8.2476887559        1.9242083537       20.0025184202
  C        10.7478320526        1.9473171297       20.8509859145
  C        10.0478608697        4.4986356170       18.8946391965
  C        10.0334631281        5.8989107361       18.7858264690
  H         1.9215554327        4.5890463643       27.4121944627
  H         3.4148887097        4.6904820473       28.4451410689
  C         1.6105204579        5.5124476915       29.4228902960
  S         6.7764977101       -2.5216927645       28.8143507211
  N         6.3103068994       -2.0753435409       30.2872059606
  C         5.8215387410        0.1372032649       31.4608290963
  H         5.2896246036        2.3026624267       31.9126310711
  H         8.0409968646        0.9426493479       20.4061552275
  H         8.5790835376        1.9411937031       19.0058883755
  C         6.9729947755        2.7339557799       19.9135199387
  H        10.8957703815        1.2789503607       20.0430901360
  H        10.7119843448        1.3344991195       21.7176382880
  C        12.0051781213        2.8503716265       21.1464871598
  H        10.3273004471        3.7951587320       18.0551371696
  C        10.4042741774        6.6377100760       17.5775319884
  H         1.1198165850        4.6488598677       29.8334060151
  H         0.8793462175        6.2119450814       29.0792200159
  C         2.3345908729        6.1375988958       30.6312882802
  C         5.5856039491       -0.4889999301       32.7248359872
  H         7.0318348209        3.4831521956       19.0540960629
  H         6.8248110433        3.3617184828       20.7971408194
  C         5.7050687427        1.9082528285       19.7562070532
  H        11.8403584059        3.4718930084       22.0482227211
  H        12.1459630196        3.6218006931       20.4162278792
  C        13.2481044442        1.9328184356       21.3132794637
  C        10.4205498162        8.0585619928       17.4029581887
  C        10.7525154696        5.8728997058       16.3553015497
  H         2.8712292616        7.0833460274       30.4101476108
  H         1.5819827347        6.5398455502       31.3735737203
  C         3.1883818179        5.0752665158       31.2990557326
  H         5.8021086598       -1.5332062845       32.7417290877
  C         5.1218542870        0.0483875609       33.9333348715
  H         5.0658010563        2.1804121384       20.6158477636
  H         5.9997758892        0.8271800652       19.8772515648
  C         5.0084134443        1.9327208118       18.3491271455
  H        12.9722511735        1.1293289286       22.0169422018
  H        13.6148053996        1.5161289588       20.3248341883
  C        14.4539325510        2.6936296477       21.8004626164
  N        10.0924332517        8.9942689328       18.4287809561
  C        10.8567327652        8.6531272557       16.2850842650
  C        10.9833993713        6.5124131952       15.1811921121
  H        10.8281176782        4.8230960324       16.4426587502
  H         3.9432768748        5.4417596931       32.1004765335
  H         2.6706358736        4.2160426262       31.5890291216
  H         3.9172079284        4.6761627337       30.5830927663
  S         4.6972205343        1.7373714495       34.4752315146
  C         5.0579647026       -0.9383697383       34.9834666919
  H         4.9065129197        2.9805257818       18.0338962828
  H         5.5492874425        1.4559161401       17.5427868664
  C         3.6342682726        1.2701059388       18.2357291375
  H        14.1363627963        3.7474194585       22.0504041124
  H        15.1574360981        2.7901838392       20.9355787630
  C        15.2235001989        1.9031842983       22.8616411908
  S        10.2531936714       10.5193092179       17.7718024889
  N        10.7828128169        9.9951705851       16.2918983113
  C        11.0629545782        7.9869143504       15.0879033188
  H        11.1280878024        5.9067441144       14.3371238431
  C         4.4893367527        0.9521138293       36.0196825305
  N         4.5797707628       -0.3832368438       36.1108565652
  O         5.2284194760       -2.1359690262       34.7856607089
  H         3.4197110524        0.9908006242       17.2370212762
  H         2.8042199985        1.9491643744       18.6507569889
  C         3.5428318320       -0.1093894486       18.9279240177
  H        14.5089507957        1.6630396070       23.6990064917
  H        15.6354490024        0.9953037185       22.4554275717
  C        16.3562241031        2.7401411695       23.4362347651
  C        11.5540485641        8.7232625496       13.9522847307
  S         4.0118345412        1.8043803316       37.5168321582
  C         4.5275410760       -1.0691760391       37.4052930563
  H         4.5018795511       -0.6258014594       19.0509707554
  H         3.3245045191        0.1377077144       20.0020985330
  C         2.4318696885       -1.0904128167       18.4400832207
  H        15.8607076737        3.4754455852       24.1328808193
  H        16.7853120085        3.3060646061       22.5671309664
  C        17.3103239287        1.8894947148       24.2659377411
  H        11.4328936792        9.8335613922       13.9758986888
  C        11.9625970855        8.3262035865       12.6533925547
  H         3.6953535898       -0.7130636706       38.0533071078
  H         4.3221616144       -2.0786949377       37.1693089289
  C         5.8035283666       -0.9731839438       38.1864403831
  H         1.4853627510       -0.6041702422       18.3044411943
  H         2.2939966671       -1.9076580090       19.1187585117
  C         2.6756578188       -1.5600515029       17.0057724760
  H        17.3731603150        2.3263371048       25.2781984928
  H        16.7501772339        0.9506349723       24.4430099524
  C        18.6569861793        1.7724766280       23.5070167593
  S        12.0592216238        6.6337385154       12.1396094495
  C        12.3079142545        9.3764848866       11.6236726849
  H         6.0353625135       -1.9247980977       38.6915483910
  H         6.7848742781       -0.7666715710       37.6236703829
  H         5.5627792508       -0.1966527727       38.8822765585
  H         1.9956279508       -0.9918228314       16.4217227565
  H         2.5398148505       -2.6461659983       16.8361043595
  H         3.6581154500       -1.3317543063       16.7048884459
  H        18.4670234872        1.2834497382       22.5783049746
  H        19.2740943003        1.0459433571       24.0058657653
  H        19.1877961402        2.7253535827       23.2905930068
  C        12.5623199474        7.3306727969       10.6090556906
  N        12.6231462746        8.6860821204       10.5302502883
  O        12.2814024514       10.5541824532       11.7612260146
  S        12.9126378940        6.4687579367        9.0761099406
  C        12.9686753828        9.5465903672        9.3183726935
  H        13.4392996182       10.4781019544        9.6387889079
  H        13.7180715368        9.0583918702        8.7777208142
  C        11.6734263737        9.7364564491        8.5819276847
  H        11.3911517974       10.8441018264        8.7814068842
  H        11.7667677825        9.5629842724        7.4954462594
  H        10.8351177280        9.1906237186        9.0519982363
  H        21.8140083932       10.5866210272        3.2364529621
  C        22.6870772261       10.0082099185        3.2041071259
  H        22.3332977457        8.9519385311        3.1249132545
  C        23.6284850901       10.0703759497        4.4408220376
  C        23.4612042726       10.3690325868        1.8535073724
  C        22.7729768852       10.2415800201        5.6635870016
  H        24.3511295344        9.2236998302        4.4516677917
  H        24.0865692492       11.0701194694        4.4097235129
  H        23.9808366385        9.5105723978        1.4657527566
  H        24.0767061225       11.2353714110        1.7926119900
  H        22.6812346816       10.4901248833        1.1011624126
  C        21.9803123445        8.9915054648        6.1619285031
  H        23.4118815964       10.5757242640        6.4942798082
  H        22.0182785204       11.0092389050        5.5798912537
  C        20.9713229033        9.3079326512        7.2970196523
  H        22.7250803001        8.2548918025        6.4982033138
  H        21.4321710632        8.5663206761        5.3291835158
  C        19.7513190836       10.1120518796        6.8391949487
  H        21.3890572986        9.9530708487        8.0218834241
  H        20.5601247326        8.4129156655        7.7436116611
  C        18.5867264326        9.8350734576        7.7508885799
  H        20.0134278552       11.1383509802        6.7744957644
  H        19.5235626727        9.8051045070        5.7850555873
  C        17.3037754620       10.6239638666        7.3410592096
  H        18.8524483330       10.2600760664        8.7313393923
  H        18.3320331241        8.7843227381        7.9753780974
  C        17.5687201705       11.9265784734        6.6191616707
  C        16.7947769438       11.3851371427        8.5794625219
  C        16.2911175816        9.7477560525        6.5478483934
  C        17.2984333026       13.0658104387        7.3829770319
  C        18.0444540479       12.2549547775        5.3734764086
  C        16.8339729291       12.7451895852        8.6251715086
  C        16.3344395869       10.7861270041        9.7873656031
  H        16.8453180159        9.0883074675        5.8168768850
  H        15.8727125236        9.1240003391        7.2812043407
  C        15.0701591392       10.5015121241        5.9802368585
  S        17.6045817188       14.5258731304        6.5399485788
  C        18.0215689244       13.6161632983        5.0967539695
  H        18.3577593337       11.4345881843        4.6756149104
  C        16.4294417305       13.3592611260        9.7863928813
  H        16.2449919960        9.6896541139        9.7121534458
  C        15.7943515380       11.4028692007       10.8873638911
  H        15.4097922938       11.2906735600        5.3750041623
  H        14.4381467791       10.8277650223        6.7883634886
  C        14.3190119816        9.6010892574        5.0726146393
  C        18.4920173905       14.2774293643        3.8674439642
  C        15.8488738720       12.7506067283       10.9351454546
  H        16.3841849780       14.4107615553        9.7814368080
  C        15.3297161827       11.0200204419       12.1304989015
  H        13.5612295928        9.0047357720        5.5756376211
  H        15.1045626697        8.9177587097        4.7825886332
  C        13.6946132084       10.3418234646        3.8590327086
  C        18.4479788878       15.6580047475        3.5611502411
  C        18.8761901876       13.4127619598        2.6604602812
  C        15.5079472890       13.4222647095       12.2243609677
  C        15.0840747330       12.1509331294       12.9206469049
  S        15.1529367238        9.5547767487       13.0244290673
  H        14.3742648958       11.1033468077        3.4432452587
  H        12.7770905933       10.8455266997        4.1435467310
  C        13.1944374680        9.4151106087        2.7447711404
  N        18.0983412652       16.6361002528        4.5087719882
  C        18.7636654495       16.1450809299        2.2591811079
  C        19.0450208091       13.9656084262        1.3621434124
  H        18.9113863391       12.3096590818        2.6174184861
  C        14.2949812065       14.3645771233       12.0710760173
  C        16.6749458650       14.1628577693       12.9294309174
  C        14.6304751659       11.7815766619       14.2330638758
  C        14.7446634337       10.4620851604       14.4579421078
  H        13.8077083460        8.5346710520        2.6839980971
  H        12.1634863925        9.0618012564        2.9300948805
  C        13.3741376604       10.0908681608        1.4007108737
  S        17.9726831782       18.0571255171        3.7387194577
  N        18.5926440239       17.5603646415        2.3093957097
  C        19.0302342542       15.4128848695        1.0908906806
  H        19.0976284840       13.3490804234        0.4517414654
  H        14.5268223893       15.2849968285       11.4591296908
  H        14.0968577789       14.8553464796       12.9908871731
  C        12.9631022545       13.6364075416       11.6752109133
  H        17.1495426982       14.8421306840       12.2722492844
  H        16.3389339263       14.6778036246       13.7424090351
  C        17.7578807388       13.2801503909       13.4728398836
  H        14.1997382796       12.5645468238       14.8319032981
  C        14.3878518956        9.7069690169       15.7392795798
  H        14.4757989638       10.1895783200        1.2484592545
  H        12.9690881822       11.0724427646        1.3792268777
  C        12.5627898688        9.3715675659        0.3855259889
  C        19.1887118047       16.0079943340       -0.1453685890
  H        13.1483617948       12.9122458949       10.8727220265
  H        12.5170893689       12.9513601881       12.4591934068
  C        11.7616201866       14.4621270004       11.2633946114
  H        18.0200849639       12.6120360733       12.6612564404
  H        17.4917605132       12.5855865053       14.2430651024
  C        18.9150408200       14.1415257296       13.9095996018
  C        14.2913929312        8.2856812988       15.8523885973
  C        14.2730789601       10.4723419258       17.0265269300
  H        12.7973714459        8.3167689753        0.4252858667
  H        11.5314222444        9.3882715709        0.7127620676
  C        12.7509361267       10.0807278673       -0.9481007288
  H        19.1502427012       17.1095636860       -0.1066898706
  C        19.5593581661       15.4675030393       -1.3720291102
  H        12.2427884708       15.0072326863       10.4008846253
  H        11.4375441575       15.1066735391       12.0852758066
  C        10.5659919741       13.4362890276       10.9291848711
  H        18.9473073200       15.0100437937       13.3121312717
  H        18.7162541380       14.4636033369       14.9641542616
  C        20.3266215610       13.4430773429       13.8537426565
  N        14.5905952348        7.3555141532       14.8458040064
  C        13.8729100212        7.7137973808       16.9890423722
  C        13.9945663764        9.8575496522       18.2025147950
  H        14.3429091775       11.4917069079       16.9863048027
  H        11.8097081218       10.1277525749       -1.5368312620
  H        13.3930830155        9.5325201612       -1.6903568241
  H        13.1126359531       11.0737839989       -0.7763882393
  S        19.8774810940       13.8249600567       -1.8469757460
  C        19.6862916966       16.5130510839       -2.4055325239
  H        11.0040650921       12.4722068093       10.6587085368
  H        10.0478075711       13.2215336485       11.8707411090
  C         9.4438775899       13.9432130312       10.0710240145
  H        20.4184638956       12.9510110558       12.8604825957
  H        20.4815321240       12.6507322976       14.6001212263
  C        21.4061565156       14.5359343692       13.9138367588
  S        14.4307600310        5.8788008147       15.5071086335
  N        13.7538802808        6.3426765378       16.9256158885
  C        13.7691709911        8.4055749111       18.2268946002
  H        13.9431107667       10.4295550781       19.0309351013
  C        20.2210126392       14.5549345153       -3.3895223468
  N        20.1248913012       15.8867566159       -3.5026529564
  O        19.4567565421       17.6986505625       -2.2326035718
  H         8.7186677578       14.0895809151       10.7955076410
  H         9.5288305098       14.9185805267        9.6287510048
  C         8.8997889705       13.0556956175        9.0073405250
  H        22.3577133908       14.0577769622       13.6850988984
  H        21.1754049993       15.2709617052       13.1479620172
  C        21.5086203938       15.3481177135       15.2785947875
  C        13.4325614587        7.6668147233       19.3673945555
  S        20.5109217661       13.6097667880       -4.8247414311
  C        20.1270251723       16.5947791216       -4.7865273810
  H         9.5041597284       12.9642809329        8.0574532718
  H         8.7993649289       12.0696393789        9.4511333129
  C         7.5520013041       13.5688088416        8.5302432810
  H        21.9729954913       14.7477672756       16.0303863163
  H        20.5186181495       15.4825380541       15.6645278138
  C        22.1636534561       16.6746594150       15.0137849243
  H        13.7050701911        6.6465704140       19.3550197256
  C        12.8489451569        8.0828552351       20.4693509569
  H        20.9854012155       16.2671416838       -5.3905133578
  H        20.3535299499       17.6647453282       -4.4837291687
  C        18.8180781237       16.5686356158       -5.5546615799
  H         7.3994319706       13.1533471936        7.5042257587
  H         7.6060458895       14.5817480410        8.2288599317
  C         6.3899850524       13.2937535284        9.4765134381
  H        23.0372890058       16.5212879300       14.3385046536
  H        21.4715358734       17.2699773532       14.4497466516
  C        22.6008758901       17.2120640986       16.3456378108
  S        12.0873696512        9.5692995657       20.6748831853
  C        12.8404545492        7.2119932547       21.6228785874
  H        18.8599861472       17.1048116420       -6.4825219510
  H        18.0690993835       17.1479364318       -5.0034874273
  H        18.5141839192       15.5459134776       -5.7245602348
  H         5.3893213420       13.2587754064        8.9309819901
  H         6.6343568607       12.3300426316        9.9007988330
  H         6.3541108347       14.0503759432       10.2698024225
  H        23.5422326326       17.8969285820       16.2682293112
  H        21.7990469602       17.6697068857       16.9432192251
  H        22.8328145100       16.4082743748       16.9682823435
  C        11.6185822116        8.9308697586       22.3093446608
  N        12.1405520775        7.7116589229       22.6490812267
  O        13.2493701992        6.0716805628       21.7117830507
  S        10.9596730238        9.8765433975       23.6311668356
  C        12.0146916833        7.0342184331       23.9606374702
  H        11.7848511351        6.0534833133       23.6118033925
  H        11.1704315826        7.4208806284       24.5868713547
  C        13.2707741735        6.8344767565       24.7040277996
  H        13.2702382382        7.1465191488       25.7835201663
  H        13.9899464223        7.3420017524       24.1595649967
  H        13.5887886478        5.7907882372       24.7548841691
