352
 i =    24700, time =    24700.000, E =        25.2969836919
  H        12.4296277945        6.8090719239       31.7834105129
  C        11.7350807755        6.0054355321       32.2505079661
  H        12.3643606696        5.1283569871       32.2238218446
  C        10.5575283631        5.7185807144       31.2783495588
  C        11.1828315108        6.4075952476       33.6047381776
  C        11.1105450793        5.6836739747       29.8544827198
  H        10.0314470589        4.7857932278       31.4790969117
  H         9.7530635897        6.4560809832       31.3401712196
  H        11.8318133476        7.0279542287       34.1799029366
  H        10.1172975271        6.6012757327       33.5663537559
  H        11.2004677541        5.4210323179       34.0523759176
  C        10.0467908194        5.6585381975       28.7222507999
  H        11.7947109454        4.7835203792       29.8327257140
  H        11.8896251796        6.4963190236       29.8575153841
  C        10.4598678914        5.5554547882       27.2960626650
  H         9.4702561797        4.8001384458       29.0263132933
  H         9.3962097451        6.5410425984       28.8933365433
  C         9.4147496004        4.9770273376       26.3102959959
  H        11.5743358721        5.2218579043       27.2244447551
  H        10.5608215161        6.5611098908       26.9967315980
  C         8.1604495363        5.8917802146       26.1691231743
  H         9.8048061539        4.7333308816       25.3118212537
  H         9.2001807243        4.0110387994       26.6566321215
  C         7.0605320248        5.0239887695       25.4094183888
  H         7.8137435346        6.0789056159       27.2151029781
  H         8.3678114626        6.8102179312       25.7285289454
  C         6.7649878421        3.6841841402       26.1716756302
  C         7.5761741029        4.2316549659       24.2514317153
  C         5.7837708143        5.8607888277       25.0902018294
  C         7.2350777810        2.5418166997       25.4942806072
  C         6.0805047768        3.3291648640       27.3408540658
  C         7.6733927616        2.8300041128       24.1798326117
  C         7.9771995550        4.9064795649       23.0851926361
  H         5.9528703842        6.4933114471       24.2353768764
  H         5.6054075143        6.5522919017       25.9063478303
  C         4.5321731751        5.1021764824       24.8094759517
  S         7.1007208866        1.1106957789       26.4280884935
  C         6.2465894900        1.9436411866       27.6676599550
  H         5.5830357308        4.1284063354       27.9634979459
  C         8.1535508766        2.2491094196       22.9924603838
  H         8.0225930114        6.0087634101       23.1520565668
  C         8.4323477803        4.2778984400       21.9338277771
  H         4.6528121277        4.4612589669       23.9214630472
  H         4.3684569260        4.2726837631       25.5541668812
  C         3.2507277037        5.9946150481       24.7235454917
  C         5.7800314745        1.2721197794       28.9034243051
  C         8.5571683804        2.9637925759       21.8870241766
  H         8.2103697998        1.2217676035       22.9997564043
  C         9.0548696392        4.7202593413       20.7789600587
  H         2.6551494015        5.6213146131       23.8861274390
  H         3.6275874210        6.9576345036       24.4115421613
  C         2.4670721485        6.3183889303       26.0456377595
  C         5.9275537484       -0.1233810712       29.1875408844
  C         5.1798266155        2.1315276481       29.9511107119
  C         8.9702844900        2.2323534674       20.5780347659
  C         9.2495181823        3.6483188074       19.9349020552
  S         9.4573531493        6.2435080493       20.0687015189
  H         1.7718336585        7.1511303135       25.9575188613
  H         3.2284762733        6.6810344166       26.8171753891
  C         1.8344401996        5.0102220545       26.6149226075
  N         6.4057227357       -1.1329706009       28.3368917118
  C         5.6060164333       -0.6386347425       30.4465196984
  C         4.9336449196        1.5527840482       31.2397436308
  H         5.0812137696        3.2100259604       29.8502547642
  C         7.7847821579        1.4881142602       19.8415914393
  C        10.2661285738        1.4248598157       20.5777925242
  C         9.6625361285        4.1006835183       18.6616574221
  C         9.8374087302        5.4369316289       18.5991732861
  H         1.0857682051        4.6166646989       25.9599567647
  H         2.6073784822        4.2386115726       26.5992629885
  C         1.2403520328        5.2510615192       27.9697724348
  S         6.3576273726       -2.5525230798       29.0941851088
  N         5.8519210369       -1.9868009291       30.5219252967
  C         5.1765797932        0.1027940432       31.5314501832
  H         4.5311895415        2.2503683073       31.9674774244
  H         7.2869823585        0.8920470003       20.5353486630
  H         8.2359107733        0.9445494979       19.0410366260
  C         6.6509134911        2.4734737625       19.2275315140
  H        10.5157433644        1.1701972241       19.5652816726
  H         9.9982959562        0.4126270361       20.9162837827
  C        11.4009983852        2.0993391077       21.4092888927
  H         9.7941247307        3.3059716259       17.8906057404
  C        10.1797556869        6.1930926907       17.3656484136
  H         0.4479240162        4.4272736710       28.2280202701
  H         0.6210057977        6.1310578169       28.0093853318
  C         2.3274295293        5.1204723049       29.0525425549
  C         4.8586950488       -0.6073343360       32.7291100851
  H         7.0604601623        2.9779374812       18.3743030762
  H         6.3671572427        3.1728075663       19.9770708504
  C         5.4757037742        1.5572266963       18.8104265522
  H        11.0299404744        2.0919327742       22.4418061000
  H        11.5483168411        3.1233818165       21.0996442615
  C        12.6391213615        1.2120722678       21.3382343304
  C        10.1814596146        7.6470700005       17.2488679784
  C        10.5103760872        5.4279151727       16.1634963899
  H         2.5737750095        4.0344459068       29.2173702174
  H         3.2545070990        5.6128174394       28.7773600331
  C         1.7603717085        5.6590762907       30.3238886127
  H         5.0356859580       -1.6844529327       32.7377989283
  C         4.4401575028       -0.1497780246       33.9750889077
  H         5.3094705459        0.7689557518       19.5652284143
  H         5.8944918854        1.1301011217       17.8502115722
  C         4.1188538486        2.2186171166       18.5939651861
  H        12.6018644711        0.7075912902       22.2583320729
  H        12.4620418556        0.4791896577       20.6016611613
  C        13.9038946703        2.0088344798       21.1378354973
  N         9.8485075442        8.5823119300       18.2740032886
  C        10.4649384670        8.2287058540       16.0015284351
  C        10.7179012649        6.0080968069       14.9337426049
  H        10.5536903848        4.3485452947       16.1986693385
  H         1.8758770005        6.7444178022       30.2740246521
  H         0.6877903223        5.2685759438       30.4853557559
  H         2.3149055596        5.3212529337       31.1553952942
  S         4.2478951448        1.5357010123       34.3985028148
  C         4.3106587301       -1.1066897434       34.9986123507
  H         4.0461804890        3.0924609351       19.2487955657
  H         4.0712104589        2.5343772033       17.5720702761
  C         2.8564891975        1.3315494459       18.6315253952
  H        13.7871919339        2.8016018936       20.3740391671
  H        14.6576830761        1.3605952203       20.7453450685
  C        14.3641739862        2.7423471716       22.3951095056
  S         9.8160713114       10.0608068342       17.5851725579
  N        10.2870758168        9.6037517059       16.1096449935
  C        10.7378232339        7.5163455046       14.7709183758
  H        10.8483661122        5.4059277512       14.0766521655
  C         3.9371567662        0.8821603466       36.0378428217
  N         3.9571448433       -0.4703008087       36.1120007156
  O         4.5690978309       -2.2766289272       34.8836367142
  H         2.0526434510        1.7604303839       18.0941120616
  H         2.4180562034        1.2403050918       19.6828464187
  C         3.0006194322       -0.1163963779       18.1347960899
  H        15.0912771334        3.4744622347       22.1798295933
  H        13.4849566903        3.2409588251       22.8119256875
  C        14.9997472993        1.7722592589       23.4130402610
  C        11.0023129505        8.1688934794       13.5273638337
  S         3.8636317915        1.7534138763       37.6149442207
  C         3.8859934930       -1.1919869701       37.3714064708
  H         3.2148928427       -0.2109498335       17.0788604139
  H         3.6870301950       -0.6623213861       18.7489184834
  C         1.6756696579       -0.8437599562       17.9711388984
  H        14.8782642801        0.8219431678       22.9957759467
  H        14.4116893885        1.6679752011       24.3237995011
  C        16.4641898050        1.9667884905       23.7815612898
  H        11.0076346888        9.2622538906       13.6040686956
  C        11.5970414898        7.7705996111       12.3476214020
  H         3.0913674506       -0.8749124651       38.0946296531
  H         3.5756645379       -2.2049454998       37.2313180350
  C         5.2225187138       -1.2702680726       38.0872216097
  H         0.9570529383       -0.3161203842       17.4403158789
  H         1.1553194983       -0.7394911789       18.9251279311
  C         1.7162931234       -2.3220499708       17.5058483115
  H        16.5353364940        2.9041095397       24.2562042436
  H        16.7556775470        1.3060312532       24.5908934221
  C        17.4696079449        1.8086304923       22.6692026908
  S        12.1742223023        6.2496641346       11.9208960448
  C        11.7505187680        8.8038662618       11.2873457719
  H         5.4270820150       -2.2461837285       38.5562002536
  H         6.1165647523       -1.1546485438       37.4320949413
  H         5.3613611158       -0.4436495708       38.8085462775
  H         1.8551275919       -2.4524189679       16.4544974716
  H         0.8489259057       -2.9139810445       17.8435530706
  H         2.5935463685       -2.9574907262       17.8777664553
  H        18.4862299842        1.5523194286       22.9904756742
  H        17.4991524357        2.6859308260       22.1072227167
  H        17.0537015202        1.1165841145       21.9956601359
  C        12.4203901748        6.9276178546       10.3129404326
  N        12.3271678020        8.2565859848       10.2400053833
  O        11.2516088715        9.9060327454       11.2374182876
  S        13.0507172412        6.1647023658        8.8900019872
  C        12.5853293333        9.2158657920        9.1453339626
  H        13.0140334275       10.1830028434        9.5258356569
  H        13.4072965526        8.8907382610        8.4479256338
  C        11.3247518168        9.5360573510        8.3512819638
  H        11.1871167599        8.7912508108        7.5255118967
  H        10.4412384748        9.5171075776        8.9890888063
  H        11.3523805599       10.5068885236        7.8922702659
  H        20.7336988877       11.0241593746        3.3837678728
  C        21.4229075649       10.2006908689        3.4582620288
  H        20.8062413091        9.3430742330        3.6984800965
  C        22.4479762146       10.6038057030        4.5069277527
  C        21.9942742205        9.9454938548        2.0550297455
  C        21.6362226417       10.9892213604        5.8247141985
  H        23.1713601895        9.8038108896        4.4771836014
  H        22.9737550564       11.4454592715        4.1135738135
  H        21.1177897465       10.0021005559        1.3917998771
  H        22.3335175887        8.9351945709        1.8294192030
  H        22.6744812439       10.6554378224        1.6296993058
  C        20.9314013621        9.7075095112        6.4669662544
  H        22.3265934103       11.2781281180        6.5924453383
  H        20.9508739314       11.8055148048        5.6308098661
  C        20.4703766260        9.8030671633        7.9246011287
  H        21.7190585761        8.9032159499        6.4094172829
  H        20.2154257343        9.2881219133        5.7623341060
  C        19.2100431963       10.6199857153        7.9686650183
  H        21.2603396632       10.2649719396        8.5336133042
  H        20.2103657634        8.8180160587        8.3364158399
  C        18.0164964879        9.8449009858        7.4102532574
  H        19.0896365601       10.9827514551        8.9873123867
  H        19.4223837750       11.4530177645        7.3848583307
  C        16.8155706379       10.7529295520        7.1555017486
  H        17.6242916387        9.1297275667        8.2400631292
  H        18.1889293365        9.2632418151        6.5280266922
  C        17.2487502399       12.0741190008        6.4969145969
  C        16.4203207097       11.4551590895        8.4256548900
  C        15.7189299337        9.9758336623        6.3653449390
  C        17.1214881273       13.1573873011        7.3437828122
  C        17.6309038850       12.4344070700        5.2074067263
  C        16.6347874785       12.7858072713        8.5921214797
  C        15.8386380342       10.7478782903        9.4770546271
  H        16.0711704558        9.6768180253        5.3933537453
  H        15.5615619938        9.0684988849        6.9066681866
  C        14.3511008277       10.7577257446        6.2896061031
  S        17.4034979047       14.6474206418        6.4055377198
  C        17.8723445363       13.7626925668        5.0014526857
  H        17.7804379075       11.6299221148        4.4709957546
  C        16.2152163731       13.3449815918        9.7830126771
  H        15.8616839770        9.6688399270        9.4896041506
  C        15.4697569845       11.3377949885       10.6107188684
  H        14.5157756170       11.7020488939        5.7502402899
  H        13.9073226435       11.0111156507        7.2667333351
  C        13.3220387210        9.9953696359        5.3870886021
  C        18.2014435870       14.3713082853        3.6650458234
  C        15.6599209653       12.6598604393       10.8038065467
  H        16.0874095265       14.3894594130        9.8318270908
  C        15.0405579288       10.9062347638       11.9130164969
  H        12.4240261665       10.5824232204        5.4692744394
  H        13.0861601314        9.0205006416        5.8291829867
  C        13.6550964892       10.1157626561        3.9093773459
  C        17.9993540295       15.7188120850        3.3546150119
  C        18.6664794902       13.4613784804        2.5274536565
  C        15.1291510380       13.3372947005       12.0811232413
  C        14.8211817317       11.9860402430       12.7907138710
  S        14.8936310190        9.3543738081       12.6975993352
  H        14.4537877474        9.3568836248        3.7181711769
  H        14.1122196999       11.0994578824        3.7372572374
  C        12.4955303481        9.8383605653        3.0438156581
  N        17.6588932936       16.7040218801        4.2725393305
  C        18.1576839875       16.2076645370        2.0563784633
  C        18.6752172076       13.9399204734        1.1969598027
  H        19.0245638365       12.5409414759        2.7660149514
  C        13.8298876176       14.1175940073       11.9450763521
  C        16.2173890112       14.0836785293       12.8767843152
  C        14.4029916097       11.5846049048       13.9983864909
  C        14.3429003487       10.2008216205       14.1178438998
  H        12.4791881508        8.7619387167        2.7950577233
  H        11.4992732037       10.1706840682        3.4057785475
  C        12.6311424213       10.4966669751        1.6331761854
  S        17.5214308803       18.0927238671        3.4723483635
  N        18.0074470326       17.5985253459        2.0069916368
  C        18.4470143076       15.4219916778        0.9211940862
  H        19.0471852348       13.3057447873        0.4894012958
  H        13.9380831288       14.9745732948       11.2138544936
  H        13.6177631780       14.5601536398       12.8952028150
  C        12.5646163818       13.2411503784       11.6192802899
  H        16.3691746031       15.0846221170       12.5165156369
  H        15.8547395777       14.2835211183       13.8712861190
  C        17.5737702330       13.3960220373       12.8885420107
  H        14.2757861661       12.3503074342       14.7112342534
  C        14.0249042509        9.4455461819       15.3719880422
  H        13.3627646232       11.2459517904        1.6644704054
  H        11.7343648941       11.1234582139        1.5716599333
  C        12.6937947740        9.5909744150        0.4337819414
  C        18.6467002694       16.0256402892       -0.3378300513
  H        12.6822042153       12.5492792902       10.7997660288
  H        12.2703366614       12.6128969006       12.4784750519
  C        11.3287580048       14.0550658305       11.2641630933
  H        17.8309273784       13.1041041810       11.8901213104
  H        17.4767990865       12.4985165498       13.4969579928
  C        18.5917188890       14.2204837470       13.6183687492
  C        14.0894953569        8.0043960300       15.5714108660
  C        13.5879252951       10.2357236181       16.5288842592
  H        13.6339497473        9.0289422077        0.6096661849
  H        11.8417395709        8.9449999066        0.4622006806
  C        12.8055658683       10.3758587596       -0.9086852062
  H        18.2700585066       17.0435707481       -0.3985273906
  C        19.0056665185       15.5920150607       -1.5831491796
  H        11.5234570154       14.9568285220       10.6538869734
  H        10.9676174882       14.4875183950       12.2194012643
  C        10.2192070251       13.1761627790       10.6448409990
  H        18.8875258448       14.9962958915       12.9989381977
  H        18.0212989040       14.7034042372       14.4184945519
  C        19.7593259963       13.3803334925       14.1239091395
  N        14.4151113403        7.1028580640       14.5800602484
  C        13.7518787433        7.4670993915       16.8305043718
  C        13.4769736800        9.6916492101       17.8369673923
  H        13.6233955327       11.2589802057       16.4835316478
  H        12.1296121096       11.2350462056       -0.9918322736
  H        12.5809378576        9.7508500347       -1.7816783153
  H        13.7260840894       10.9291180282       -0.8766110039
  S        19.5015469664       14.0465349587       -1.9644101635
  C        18.9945181523       16.5954065509       -2.6905565408
  H        10.7155693264       12.5755444961        9.8182094601
  H         9.8514139071       12.4567825142       11.3606574658
  C         9.1715123539       13.9714479621        9.9286362134
  H        19.7873770884       12.5198138473       13.4574516377
  H        19.4626297960       12.8896724269       15.0477617182
  C        21.0511923416       14.2391367127       14.2389423001
  S        14.2277470614        5.6082052005       15.1654025580
  N        13.7016449282        6.0479656350       16.6802572031
  C        13.4391350316        8.1987621566       18.0331498295
  H        13.4381678669       10.3372095806       18.7204152698
  C        19.5798029350       14.6781090827       -3.6133693580
  N        19.4815474968       16.0250677521       -3.7820791777
  O        18.5173070956       17.7606160248       -2.6310175516
  H         8.6497113065       14.4831099788       10.8176635979
  H         9.6317489977       14.6830674116        9.2789277001
  C         8.1712032078       13.0541971337        9.2132514240
  H        21.8027142024       13.5641340854       14.6237864920
  H        21.2555258817       14.4906259915       13.1892036046
  C        20.9456501167       15.5068711584       15.0963749807
  C        13.1626437193        7.3700460920       19.1647548294
  S        20.3946422013       13.7079532493       -4.7921117043
  C        19.6087259120       16.7740186973       -5.0478574241
  H         8.5635555813       12.6909522935        8.3211392027
  H         8.0927243002       12.1500833052        9.8483043637
  C         6.8545149619       13.7668499176        8.8725886835
  H        21.6028966712       15.4470579878       15.8943730028
  H        19.9007210971       15.5542477311       15.4351726397
  C        21.2813755323       16.7688472377       14.2971685649
  H        13.4419151951        6.2868542654       19.0641369829
  C        12.6110596369        7.7151731012       20.3843742771
  H        20.3934087402       16.2587654601       -5.6485863288
  H        19.8537525505       17.7391316845       -4.6792092292
  C        18.3414611098       16.8198441613       -5.7970332538
  H         6.5687979094       13.3152484763        7.9788120376
  H         7.1504624849       14.8352573049        8.6068980619
  C         5.8748946017       13.8320308346       10.0081712390
  H        20.9451358842       16.7723129400       13.2235506958
  H        20.6695342917       17.6104216282       14.7390483780
  C        22.7982920115       16.9148151544       14.1355347173
  S        12.0025037275        9.2669268298       20.8098900748
  C        12.5061415821        6.6208713704       21.3779077387
  H        18.2578488252       17.7671716071       -6.2704204642
  H        17.4767267494       16.7036287817       -5.1535639709
  H        18.4495025171       15.9890195473       -6.4813438511
  H         5.9269404613       14.7805245148       10.4774150776
  H         4.8548443444       13.6533114922        9.6892500760
  H         6.1020582231       12.9511497628       10.6851786196
  H        23.1646925058       17.7323752866       14.8395027266
  H        23.3959442605       15.9868501734       14.3774820753
  H        22.9800123479       17.1077736383       13.1162331407
  C        11.5157997875        8.4427769003       22.2599771432
  N        11.7922067754        7.1355436425       22.4110312517
  O        12.9266682212        5.4671009733       21.3273642695
  S        10.7013216685        9.1827037460       23.6275202597
  C        11.4971474264        6.3744473296       23.5792974289
  H        11.3714435783        5.2524866286       23.4339479850
  H        10.5546371414        6.5520087643       24.0587903322
  C        12.6630684260        6.5643060247       24.5437909143
  H        12.4736320671        7.3825415997       25.2364970039
  H        13.6161393474        6.7983432168       24.0072176919
  H        12.8702324532        5.8323809630       25.3508108501
