352
 i =    59800, time =    59800.000, E =        25.0247996571
  H        10.4842141744        4.6166822904       31.3023115402
  C        11.0223430392        5.4663170429       31.7412551712
  H        10.2870198916        6.2328340934       31.7752589593
  C        12.1901517245        5.9932075846       30.8166958341
  C        11.4081192354        5.1495596204       33.1842224455
  C        12.1210967122        5.5251350577       29.3428182961
  H        12.0678387981        7.1093476201       30.8444477434
  H        13.0807044489        5.7911272257       31.3285161432
  H        10.5793203834        4.6686657223       33.7130472272
  H        12.1576659049        4.3972316049       33.2205874775
  H        11.4957928906        5.9766506654       33.8310328511
  C        10.6855531932        5.4876565261       28.7465758078
  H        12.4494496293        4.5123823104       29.1869485841
  H        12.7463071255        6.1706997059       28.7109286501
  C        10.8816426364        5.4215473396       27.2091804798
  H        10.1213198011        4.5655825380       28.9716788167
  H        10.1310358828        6.3514803772       29.0492727395
  C         9.6883762035        4.7366946041       26.4016487484
  H        11.7552728393        4.7735754498       27.0771412307
  H        11.0554437353        6.3819771213       26.7805104594
  C         8.4451989660        5.6009061921       26.2288375615
  H        10.1156954684        4.6144159902       25.3646076414
  H         9.4527784607        3.7563631505       26.8093821245
  C         7.2618058019        4.8509672371       25.3773399415
  H         8.0472083058        5.7258983828       27.2597573964
  H         8.7993185426        6.5734166578       25.8526664924
  C         6.8602249222        3.5044113511       26.0530690240
  C         7.6842970921        4.0707179695       24.1925456070
  C         6.1254397383        5.7877263537       24.8935905462
  C         7.1102089818        2.3638673036       25.3439447964
  C         6.2929980526        3.2289123681       27.3072122990
  C         7.6143412983        2.6949808912       24.1235568870
  C         8.0768306425        4.7531214531       23.0629990573
  H         5.8275879266        5.5625402923       23.9077904014
  H         6.4651608859        6.8475219811       24.6325942787
  C         4.7855402488        5.8431128675       25.7402441387
  S         6.5736098436        0.9509104586       26.0964267717
  C         6.0421300447        1.8498937705       27.4572305214
  H         6.1035734729        4.0031700984       28.0110092234
  C         7.9667377608        2.1121881686       22.9159356233
  H         7.9871028042        5.8146099168       22.9969135215
  C         8.4094728411        4.0711003672       21.8763307299
  H         4.6550448923        4.7699197699       25.9865760799
  H         4.6043498543        6.4843729338       26.5997812060
  C         3.5553525205        6.0829177528       24.7733634361
  C         5.5812641380        1.2234952551       28.7556398900
  C         8.3916557426        2.7743782023       21.7888097584
  H         8.0816910766        1.0326100012       22.8119553845
  C         8.6942599128        4.4554835009       20.5958468653
  H         3.3742864431        5.3180013225       24.0127929576
  H         3.7426248428        7.0135057448       24.2109377078
  C         2.2434134933        6.3041722490       25.4966734859
  C         5.6437993054       -0.1443695056       29.1140622177
  C         5.2036807682        2.0501047110       29.9033265293
  C         8.7215084924        2.0626961772       20.4995270658
  C         8.8450033499        3.3972727554       19.7585272985
  S         8.9188079731        5.9933538627       19.8437729077
  H         1.4935367677        6.7808682489       24.8830610716
  H         2.4088936670        6.9674776032       26.3667197988
  C         1.6888300268        4.9927095626       26.0424248446
  N         6.0646703966       -1.1773804317       28.2216848833
  C         5.4415727663       -0.6497165738       30.3980848902
  C         4.9625325900        1.5718813110       31.1879897974
  H         5.2073875838        3.0553533616       29.8288354992
  C         7.5132246303        1.1591654095       19.8784300359
  C        10.0797760303        1.2795735787       20.6412195779
  C         9.2002373664        3.7845458677       18.4435853871
  C         9.3408293365        5.1457929729       18.2986152573
  H         0.9290024149        4.7679474065       25.3082964373
  H         2.4285554937        4.2208050469       26.0151167815
  C         1.0556516080        5.1753682420       27.4684202079
  S         5.9922457900       -2.5916128259       29.0452582699
  N         5.6535945937       -2.0334093973       30.5137661156
  C         5.1677914105        0.1632915916       31.5329197979
  H         4.6079529819        2.2790885811       31.9359693879
  H         7.0656059528        0.4170045145       20.5967835984
  H         7.9674725507        0.5147818794       19.0554489338
  C         6.4183295110        1.9806756311       19.3273551099
  H        10.2175479616        0.9383560076       19.6560849087
  H         9.9046495241        0.3657455037       21.1620787583
  C        11.3891664718        2.0937035217       20.9513032561
  H         9.4420969874        3.0359431960       17.6660222123
  C         9.6079112235        5.8729222912       17.0289450393
  H         0.3642785229        4.4060517665       27.6887097198
  H         0.5812284176        6.1759310081       27.5114493602
  C         2.1233102031        4.9288804906       28.5547993913
  C         5.0303477779       -0.4710562087       32.8401311756
  H         6.6836695636        2.3032678148       18.3214084903
  H         6.3931574357        2.8814476514       19.9399817497
  C         5.0818976316        1.3815262421       19.1024333338
  H        11.2177958058        2.6521786069       21.9055144338
  H        11.4470405329        2.8502217084       20.1800270866
  C        12.6245900200        1.1734767450       21.1266343631
  C         9.7406324426        7.2576421096       16.8449475721
  C         9.7183195325        5.1318121916       15.7962685060
  H         2.4256610254        3.8833750820       28.5459787552
  H         3.0148320603        5.5055880435       28.3151767645
  C         1.5888596439        5.2459750240       29.9578260222
  H         5.1882694670       -1.5385100885       32.9651976803
  C         4.8715575353        0.0457311245       34.1598213751
  H         4.4799160035        1.4604619681       20.0461163433
  H         5.2707643239        0.2279309783       18.9776204606
  C         4.2854453806        1.9980128880       17.9902595367
  H        12.4277982140        0.4621181676       21.9454356066
  H        12.7241051943        0.5318686497       20.2372128981
  C        13.9515714018        1.8291861439       21.3486152126
  N         9.5744826559        8.2481748275       17.8150021249
  C        10.1398597094        7.8095033073       15.6331858835
  C        10.1390093102        5.6612370718       14.5594323787
  H         9.3413677208        4.0770803624       15.8991411796
  H         1.1026091137        4.3160802835       30.3608695014
  H         2.4353211370        5.4271759928       30.5622372952
  H         0.8853089731        6.0960081251       30.0838452674
  S         4.3804188087        1.6409614543       34.4760849993
  C         4.7376850226       -0.8818567307       35.2765279912
  H         4.1431131168        3.0798056701       18.1774165203
  H         4.9619960190        2.0341703814       17.0572615591
  C         2.9146088718        1.3606331577       17.5960104355
  H        14.0137824235        2.6654084138       20.6780059451
  H        14.8069331235        1.2642168951       20.9567760490
  C        14.1461393193        2.3037022659       22.8127680123
  S         9.9978212835        9.6667974803       17.2104527253
  N        10.4232095257        9.1992203384       15.7194342050
  C        10.3349131006        7.1212057248       14.4810297899
  H        10.2659032725        4.9555836757       13.7022360458
  C         4.1495102714        1.1228150727       36.1204227907
  N         4.4008926309       -0.2001824599       36.3374296218
  O         4.8075796926       -2.1046168244       35.2344365274
  H         2.2820385186        2.0222054067       16.9543355145
  H         2.4064095591        1.2201657674       18.5020975030
  C         3.0466609624        0.0208849993       16.8777697330
  H        13.5218146542        3.0836986328       23.0585907136
  H        13.8473896474        1.4685370693       23.5440777242
  C        15.4951254993        3.0683721280       23.0365908555
  C        10.7407212903        7.7519896661       13.2715956939
  S         3.8117466970        2.0283171044       37.5321386457
  C         4.4105866705       -0.8339729579       37.6795086888
  H         3.3187717313        0.2834306284       15.8080119053
  H         3.9045016971       -0.5161831629       17.3103615758
  C         1.8233795751       -0.8686911828       16.9195076812
  H        15.3398592979        3.5944739112       23.9743269224
  H        15.6862325011        3.7894073621       22.2033968655
  C        16.7218632547        2.2286833192       23.2091821754
  H        10.5412579307        8.8007154465       13.2344261442
  C        11.1675868348        7.3230468591       12.0055240822
  H         3.9473366550       -0.2733828786       38.4992870354
  H         3.8993813009       -1.7957340805       37.6134016678
  C         5.9136817609       -0.9818682810       38.0558000580
  H         1.4034857573       -0.7841585771       15.9204064489
  H         1.1264216012       -0.4173055133       17.6471262621
  C         2.1481046230       -2.3341998947       17.2577655011
  H        17.1445019103        2.3002391540       24.1785669910
  H        16.2638444801        1.1960532994       23.2142665650
  C        17.8793111014        2.3838180827       22.2524922749
  S        11.8007674700        5.7828550668       11.6353604373
  C        11.3630901460        8.3813701517       10.9720915214
  H         6.4584142418       -0.0581981998       38.2470507928
  H         5.9323061524       -1.5018274169       38.9880102674
  H         6.6076015927       -1.6670626754       37.5193562985
  H         2.6849463632       -2.4605718537       18.2400910227
  H         2.8462771593       -2.6230126678       16.4947327766
  H         1.2636939580       -2.9167413755       17.3294417244
  H        17.5992521836        2.6965984409       21.2756897678
  H        18.4527709249        1.4974767570       22.1770178806
  H        18.6374162260        3.0931881680       22.5756515231
  C        12.2444093190        6.5126088018       10.1146758286
  N        11.9475745707        7.8152006292        9.9540690084
  O        10.9344851117        9.5347519805       11.0312298100
  S        13.0309953591        5.6742143165        8.8075450584
  C        12.1937005581        8.6599914147        8.7921653376
  H        12.4248575757        9.6607197305        9.0397630439
  H        13.0623861286        8.4297180079        8.2587660632
  C        10.9049511093        8.7206912152        7.9395791326
  H        10.0366783654        8.2935533545        8.4484153862
  H        10.5247582600        9.7471236506        7.8397617036
  H        11.1004071472        8.1390600362        7.0294955397
  H        21.9059749484        8.7343500081        3.7858014429
  C        22.4612587202        9.6645085448        3.4639321448
  H        23.3461958352        9.2413500256        3.0896854560
  C        22.8201119974       10.3435007209        4.7773233232
  C        21.8660954684       10.5741837778        2.3877143031
  C        21.6447188585       10.5733063245        5.7106596643
  H        23.5064338731        9.7607594890        5.3705831510
  H        23.3332992830       11.2153002863        4.5929375370
  H        20.9315157078       11.0214652144        2.7162928517
  H        21.7058057421        9.8553821685        1.5424586673
  H        22.5322955873       11.3444959745        1.9006366063
  C        20.9541546293        9.3188923392        6.2556683273
  H        22.1180189699       11.1932707316        6.5423527677
  H        20.8158284801       11.1446066197        5.3824347855
  C        20.1304507011        9.5235588911        7.4625744616
  H        21.7782395981        8.6470756010        6.4156233342
  H        20.3076502646        8.9260657020        5.4114679480
  C        18.8724964938       10.4418964160        7.4426616882
  H        20.7111911305        9.9237156113        8.2161384214
  H        19.6513506614        8.6161562969        7.7940606579
  C        17.6506139161        9.6375796276        7.0179087927
  H        18.7219775158       11.0044811470        8.3624842134
  H        19.0299530116       11.1250214481        6.6066631166
  C        16.3508520767       10.4758186466        6.8664173141
  H        17.4912542335        8.9379311520        7.8534231960
  H        17.7544985268        9.0799988702        6.1109548334
  C        16.5984163433       11.9029593679        6.2597997958
  C        15.9803926257       11.1842202905        8.1460871024
  C        15.2662139570        9.6919733469        6.0536569078
  C        16.4587022969       12.9605895427        7.1070535680
  C        16.9051727233       12.3735944514        4.9552682077
  C        16.0270917632       12.4935794722        8.3174251240
  C        15.5688163870       10.4008274522        9.2511261517
  H        15.6659914162        9.5126632786        5.1097659200
  H        15.1746783118        8.6570959205        6.5176527275
  C        13.9589922739       10.4438156053        5.9840507329
  S        16.7871344451       14.4982069892        6.3348125129
  C        17.0992105288       13.7340655865        4.7935214098
  H        17.0189546597       11.6484808360        4.1869906361
  C        15.6150932723       13.0206912369        9.5174374180
  H        15.6049050488        9.3607495324        9.1633813834
  C        15.2265901517       10.8869413526       10.4823231528
  H        14.1476964711       11.4673222292        5.6302742209
  H        13.5422121491       10.6702833769        6.9709911842
  C        13.0039838749        9.7781283525        4.9863246277
  C        17.5334440146       14.4026644696        3.5624308207
  C        15.1726448386       12.2660313962       10.5908540474
  H        15.6161215707       14.0995144874        9.5895101214
  C        14.7423456133       10.5100935065       11.7382887675
  H        11.9662687499       10.1460707191        5.2085291092
  H        12.9190441096        8.7040426206        5.1293242130
  C        13.3850299153       10.0082223370        3.5363871948
  C        17.6585086111       15.8178938366        3.3317212565
  C        17.8330435876       13.6069524371        2.3529051901
  C        14.6952613409       13.0189647179       11.8405222445
  C        14.5120167655       11.5956547021       12.5404749444
  S        14.4915337750        8.9303348031       12.4780449430
  H        14.2755120893        9.3398187419        3.3060918852
  H        13.6201246111       11.0241586546        3.3825200016
  C        12.2082997302        9.6002944336        2.5989458370
  N        17.4273475712       16.7149097434        4.3221633073
  C        18.0444026827       16.3394104162        2.0993329665
  C        18.3023350741       14.1549886457        1.1319625799
  H        17.7804340322       12.5304095578        2.3574510592
  C        13.3955374627       13.7816765101       11.5551343516
  C        15.7906281273       13.8744008438       12.5968370689
  C        14.1299690523       11.2244433841       13.8502474482
  C        14.0964196326        9.8585446207       13.9509938745
  H        11.6616743990        8.6829186603        2.8705051238
  H        11.5511306768       10.4531888479        2.4415972250
  C        12.7837255699        9.0566134592        1.3042333544
  S        17.7868179838       18.1764723568        3.7260377148
  N        18.2110796040       17.7197375992        2.1947846876
  C        18.3346354322       15.6451791930        0.9379444963
  H        18.5621658185       13.4872861342        0.3226102049
  H        13.4641424808       14.5842977094       10.8178005912
  H        13.0614438015       14.3147772193       12.4216732147
  C        12.2692019185       12.8297313128       10.9390380418
  H        16.1621268814       14.6352141652       11.8322309300
  H        15.3414606138       14.5778207451       13.3310131461
  C        16.9459194762       13.0305941815       13.0630547162
  H        13.9642042832       11.9779454053       14.5990547553
  C        13.9152799881        9.1008199347       15.2747513050
  H        12.0980401958        8.3816327187        0.8778463226
  H        13.6683337379        8.3959968429        1.4350523738
  C        13.2341445942       10.1824298903        0.3415160621
  C        18.6490009032       16.2742523009       -0.3016934269
  H        12.4574202030       12.2650816657       10.0490075666
  H        11.9712119576       12.0430397167       11.6821890581
  C        10.9453736678       13.5345603262       10.5911185213
  H        17.3954511162       12.4915274554       12.1884385794
  H        16.6075524998       12.2875656402       13.8072981559
  C        18.0282174222       13.9279868131       13.6205280227
  C        13.7455714429        7.6872484866       15.3719330033
  C        13.7062473314        9.8903564839       16.4797604169
  H        13.1439730563       11.1384755352        0.8008895528
  H        14.2005475530       10.0389883432       -0.0179977188
  C        12.3325230541       10.2628980019       -0.8433830406
  H        18.3578391551       17.3316919931       -0.3731812893
  C        18.9493420632       15.9224917749       -1.6093598506
  H        11.2212291841       14.3932036373        9.8715573175
  H        10.4444352676       14.1216023501       11.3754917270
  C         9.9431038801       12.7353080506        9.8644377573
  H        18.4403866667       14.5654336692       12.8002051540
  H        17.5661043129       14.5416333030       14.4104237035
  C        19.1335536512       13.0259946900       14.2696672521
  N        13.8190684390        6.7874475162       14.3022731811
  C        13.3705005784        7.1068247293       16.5929803053
  C        13.3449792086        9.2788547737       17.6605338115
  H        13.7357057914       11.0009642833       16.5236252922
  H        12.5144652817       11.2412024786       -1.3791015390
  H        11.2705075705       10.2691932344       -0.5127730625
  H        12.5132728271        9.4340812265       -1.4817611280
  S        19.4105773694       14.3901441210       -2.0549330185
  C        19.1220135663       17.0060849225       -2.6056234421
  H        10.4217118307       12.3533106567        8.9543681877
  H         9.6329652224       11.8508914861       10.4687649295
  C         8.8895623825       13.6920498599        9.3934749956
  H        19.0760481946       12.0865977236       13.7837977593
  H        18.9611451478       13.0246125113       15.3965362855
  C        20.4956734762       13.5846975936       13.9318682412
  S        13.4946308209        5.2804634943       14.8092578388
  N        13.1688951433        5.6934060765       16.3487352437
  C        13.0850123634        7.7608558442       17.7446626340
  H        13.0815549197        9.9558401146       18.4453879678
  C        19.6000506737       15.1036759465       -3.6637506386
  N        19.4404432537       16.4459469214       -3.7484482325
  O        18.9634890878       18.2354054259       -2.3661796858
  H         8.5004257050       14.2611285524       10.2657232009
  H         9.3495083032       14.4243924170        8.7687931341
  C         7.6899709065       13.0441026394        8.6328973662
  H        21.2182742102       12.8899439277       14.2509987071
  H        20.6966771234       13.5766252710       12.8163070036
  C        20.7211573184       14.9393975901       14.6873667992
  C        12.7750964392        7.1270895815       18.9322501410
  S        19.9805898757       14.2300634216       -5.1564408344
  C        19.3901738906       17.2874505037       -4.9881325984
  H         7.9509960716       13.1702558216        7.5413942301
  H         7.6091002116       11.9695034815        8.9095487621
  C         6.3183583219       13.6740598496        8.9613143481
  H        20.8536270628       14.7089297948       15.7348764662
  H        19.8248854910       15.5899424477       14.6738521787
  C        21.8897968611       15.9092911869       14.2147336205
  H        13.0874339791        6.1229376835       18.8788004674
  C        12.2898290445        7.4982290610       20.1128858544
  H        19.8618557426       16.7503568923       -5.8791104534
  H        19.9267458894       18.2393179853       -4.9449345734
  C        17.9213084371       17.5254985147       -5.4002676834
  H         5.5736479982       13.3632371020        8.3019414187
  H         6.3045815482       14.7423055859        8.8916934453
  C         6.0019749982       13.2231561224       10.3477686155
  H        22.3715496705       16.2347992926       15.1137481560
  H        22.5720076544       15.3063361868       13.6404775225
  C        21.3530405810       17.0409239303       13.3807978887
  S        11.9361527934        9.0828809064       20.5655322705
  C        12.2361050817        6.4575778016       21.1386892961
  H        17.6306494866       17.0264357966       -6.3228787051
  H        17.5946322218       18.5929404589       -5.4422609652
  H        17.3421170988       16.9390805254       -4.6949773570
  H         6.7602313552       12.6738031047       10.9232520661
  H         5.6614902223       13.9666701476       10.9886797142
  H         5.0634439514       12.5851351940       10.2513768224
  H        20.8168214540       17.8199227311       13.9558217916
  H        22.1899214579       17.5663548976       12.8664087262
  H        20.7371005703       16.5926907589       12.6674899574
  C        11.6527517295        8.3909493489       22.2206083148
  N        11.6814740019        7.0531105090       22.2401740094
  O        12.3261285376        5.2317679958       20.9173597392
  S        11.0051457736        9.2997533763       23.5759713347
  C        11.4456510220        6.2109234876       23.4526722277
  H        10.9467508209        5.2350443596       23.2584423456
  H        10.6943804208        6.7179409020       24.0581993167
  C        12.7525211872        5.9051536894       24.1821076270
  H        12.6310392746        5.1384557149       24.9634440361
  H        13.2926080971        6.6713726829       24.7164055477
  H        13.4026505804        5.6317346574       23.4274882924
