352
 i =    64700, time =    64700.000, E =        24.9741491509
  H        10.8332125913        4.5840332245       31.4977605114
  C        10.7286561158        5.5998200861       31.7903352385
  H         9.6269699577        5.7668380488       31.9135049892
  C        11.2203844606        6.4840843741       30.6493290769
  C        11.3968309483        5.8287610770       33.0899685661
  C        11.9118937879        5.7630364714       29.5230679280
  H        10.3455572071        6.9830810291       30.2803691405
  H        11.8980679276        7.2598230439       30.9444581078
  H        10.9663451800        5.2973277033       33.9196867056
  H        12.3940636842        5.4479481103       32.9086239499
  H        11.3892205438        6.8689192317       33.2448717113
  C        10.9904656217        4.9575748206       28.5921100545
  H        12.6779609956        5.1635867670       29.9724108347
  H        12.4637512276        6.5534393014       28.9902894413
  C        11.1139884391        5.3806706415       27.1426329384
  H        11.2634786831        3.9589846627       28.8080963764
  H        10.0087546320        5.0939527791       29.0032811550
  C        10.0761184393        4.5818957490       26.2341026693
  H        12.1305411348        5.1912676230       26.8795010013
  H        10.9363947243        6.4183910876       26.9497184503
  C         8.9821868909        5.4354352137       25.8074958670
  H        10.6154841330        4.0982335705       25.3688890868
  H         9.6927959754        3.8296182590       26.9167390499
  C         7.7188163504        4.6942000867       25.2575735855
  H         8.6858654792        6.0512602945       26.6753477221
  H         9.2140743277        6.1983095290       25.1319433801
  C         7.3564001793        3.3534416354       25.9810948920
  C         8.2019749013        3.9046835896       24.0310455520
  C         6.5233704697        5.6093991756       24.7978786134
  C         7.5193161483        2.2245548301       25.1775507780
  C         6.9249584366        3.0227793324       27.2441963356
  C         8.0107206643        2.5601942683       23.9383981022
  C         8.4984417971        4.5644011559       22.8429661441
  H         6.1784482002        5.2555629352       23.8133126681
  H         6.8424283101        6.5996931229       24.5216061873
  C         5.3651555766        5.6931387996       25.8037151071
  S         6.9580207741        0.8153308784       26.0049242582
  C         6.5901166493        1.7090880632       27.3961570348
  H         6.9155167008        3.8271161797       27.9881986048
  C         8.1832507464        1.9317051294       22.7394247187
  H         8.4640335535        5.6402431490       22.9250537897
  C         8.6966215420        4.0046583797       21.6363278580
  H         5.3627477933        5.0982283314       26.7414906104
  H         5.3680021416        6.7369353938       26.1680215592
  C         3.9624663577        5.4431529233       25.3048053709
  C         5.9921905170        1.1345983126       28.5727095793
  C         8.5439210889        2.6682483622       21.5795484093
  H         8.0254693359        0.8812244869       22.5452163378
  C         9.0110367337        4.3558621033       20.3486724367
  H         3.8896313530        4.4271615912       24.8969103965
  H         3.7547154297        6.1176717251       24.4238318795
  C         2.8130760798        5.6494559454       26.2350577611
  C         5.7811114903       -0.2679049713       28.8365313662
  C         5.5921575955        2.0353595757       29.6565326717
  C         8.7957420235        1.9185775593       20.2716674699
  C         9.1113394922        3.2631988094       19.5204450372
  S         9.3590540224        5.8301568372       19.6423167348
  H         1.9657495685        5.9313508698       25.5510586974
  H         3.0670492562        6.4797379768       26.8696364255
  C         2.4405933322        4.3173636996       26.8957422234
  N         6.0684190019       -1.2885764932       27.8773473728
  C         5.5580988232       -0.7092043883       30.1443313932
  C         5.3670884935        1.5720140335       30.9296825110
  H         5.5471100097        3.1069730317       29.4622474389
  C         7.5330573034        1.2727294869       19.7583600172
  C        10.0353598239        0.9572743067       20.2875881469
  C         9.5858558194        3.6628716080       18.1864504890
  C         9.8170503760        5.0271950124       18.1317187096
  H         1.7470701406        3.8316765521       26.2294036945
  H         3.3202220038        3.7320441070       27.1209551651
  C         1.7838584610        4.5622123833       28.2339085365
  S         5.8740124415       -2.6938583818       28.6021505038
  N         5.5999146520       -2.1153059480       30.1668428911
  C         5.2691030790        0.1333652112       31.2242592798
  H         5.3011060219        2.3568913836       31.6468854668
  H         7.1783466718        0.5183778424       20.4416871110
  H         7.8059970272        0.6725394342       18.9005003264
  C         6.3445871054        2.1728704316       19.5048145597
  H        10.1742354827        0.5680199675       19.2656368962
  H         9.6996836682        0.0375940305       20.7539370648
  C        11.3745460459        1.5924384455       20.7449462049
  H         9.7301692095        2.9205923667       17.4988854835
  C        10.2159917476        5.7572237109       16.9461687255
  H         0.9838283797        3.7963091899       28.5050538329
  H         1.1237560963        5.3826769270       28.0397167182
  C         2.7546018894        4.8586845357       29.3800809486
  C         4.9946098281       -0.4674504233       32.4980523330
  H         6.5458777283        2.7832149941       18.6823565606
  H         6.2559612008        2.8315639736       20.3365385072
  C         4.9372544095        1.5264375468       19.2425558447
  H        11.1946223123        2.2380146057       21.6129386289
  H        11.7233611048        2.2588808125       19.9163902266
  C        12.5184018585        0.6341826162       20.9515710295
  C        10.2192733114        7.1263539848       16.7565578902
  C        10.5651653961        4.9694268538       15.6994851342
  H         3.2379286611        3.9310367952       29.6905106058
  H         3.4915144835        5.5388546442       28.9556527429
  C         2.0454743716        5.4923971479       30.5211063835
  H         4.7109964563       -1.5704505673       32.4729367229
  C         4.7139043936        0.0374947878       33.7213442176
  H         4.2794592641        2.3400377244       19.3987088858
  H         4.7148604580        0.7855301540       20.0068695170
  C         4.8164068142        0.9329084669       17.8182961962
  H        12.3249964024        0.1238740839       21.8453894522
  H        12.4792570670       -0.1978304320       20.2260940228
  C        13.9156042470        1.2761390930       20.8886329722
  N         9.8595390959        8.1193380734       17.7011877410
  C        10.6145282665        7.7086155960       15.6066227554
  C        10.9700248982        5.5881484927       14.5583929937
  H        10.5416571494        3.9074417600       15.7102880317
  H         2.6749137984        5.6522338665       31.3799201974
  H         1.6629598394        6.5044993299       30.2941171432
  H         1.1369366000        4.8258807352       30.6965682231
  S         4.5842431978        1.7215013006       34.1964603543
  C         4.5656462049       -0.9168937091       34.8479369798
  H         5.4749956324        1.4311334860       17.1048064309
  H         5.2982173657       -0.0844602091       17.9471935841
  C         3.3589197393        0.7881569309       17.2565403354
  H        13.9267926625        2.1102186440       20.1727632454
  H        14.6050666953        0.4859892811       20.4802676897
  C        14.4020091968        1.5105343714       22.2830088359
  S        10.1574323362        9.6100259854       17.1146424686
  N        10.7314484953        9.1294827645       15.7135244747
  C        10.9179638920        7.0463389297       14.4665100011
  H        11.0898650173        4.9459206250       13.6511923165
  C         4.4090819670        1.0845644592       35.8022336323
  N         4.3666733746       -0.2250059417       35.9920769499
  O         4.7047882308       -2.1604311956       34.7530462896
  H         3.3337611445        0.5733340314       16.1850861611
  H         2.9383838920        1.7810052001       17.3635622052
  C         2.5360436519       -0.2048357761       18.1284223366
  H        13.6826178612        2.0217176401       22.9469384339
  H        14.5597705397        0.5309090723       22.7886405289
  C        15.6918879071        2.3789100274       22.2222404381
  C        11.1029899240        7.8561409817       13.3315720370
  S         3.9897763806        1.9892707968       37.1466634583
  C         4.3472734354       -0.9372210458       37.2858400106
  H         2.6836586872        0.1549641863       19.1690857854
  H         1.4371227188       -0.1593513057       17.9193260248
  C         3.0500517448       -1.6748956521       18.1313751983
  H        15.4451904345        3.3926506079       22.4631413155
  H        16.0093832822        2.5147446220       21.2059456600
  C        16.7502487604        2.1598685964       23.2140164403
  H        10.6086247725        8.8316162499       13.3266226083
  C        11.6801664344        7.6024754520       12.1601487973
  H         3.5727257311       -0.4804885294       37.9077428902
  H         3.9675660983       -1.9228457772       37.2801594583
  C         5.7229810722       -1.0928078877       37.9089959780
  H         2.3554084793       -2.0748367666       18.9298133916
  H         4.1453478262       -1.8288363574       18.4132727056
  C         2.6885453833       -2.3112585784       16.8271210587
  H        16.8122626090        3.0079393020       23.9484431335
  H        16.4352780087        1.3049808638       23.8841472252
  C        18.0631868125        1.9104508899       22.5036707365
  S        12.3928089252        6.1360931420       11.6148389635
  C        11.7209065468        8.7011680913       11.1659462396
  H         6.3388519253       -0.4404055884       37.3345997278
  H         5.8248872795       -0.6874407590       38.8985655408
  H         6.1327998672       -2.0938630877       37.9864536031
  H         1.6698107810       -2.6172236994       16.7143713487
  H         3.4140510691       -3.1458111756       16.7642729816
  H         3.0111370164       -1.6963500138       15.9834236217
  H        18.8838555451        2.3989879482       22.9607826733
  H        18.0793290447        2.2338559052       21.5127610688
  H        18.2857275617        0.9137408181       22.6200798741
  C        12.8090171736        7.0035325034       10.1885101767
  N        12.4583586344        8.2839784395       10.1470945536
  O        11.1119090540        9.7530790540       11.2347016665
  S        13.6766980396        6.3334599209        8.8422767867
  C        12.5941289818        9.1850692190        8.9896037610
  H        12.8060217547       10.2415418210        9.3218411912
  H        13.3549499119        8.8627452913        8.3306905256
  C        11.3088529589        9.2278289183        8.1727816102
  H        11.6140192119        9.4793467372        7.1648603218
  H        10.8778296545        8.2380285446        8.1197073702
  H        10.5893114400        9.8662605850        8.6823939567
  H        22.8532193830        9.5072685513        3.1704248033
  C        22.4654267726       10.2956038926        3.7959145083
  H        22.9405645619       11.2671428272        3.4636832011
  C        23.1096954955       10.0105148726        5.2178997029
  C        20.9130514923       10.3472557918        3.5725368293
  C        22.0772596733       10.2588738573        6.4128538406
  H        23.6025521378        9.0710233865        5.3088048750
  H        23.9387592616       10.6720804660        5.4662531783
  H        20.6527249173       10.2620108836        2.5269996639
  H        20.3914244846       11.2430829560        3.8601286237
  H        20.4344450094        9.5479747872        4.1501033356
  C        21.3740666746        8.9764450020        6.8793881681
  H        22.6819095316       10.6737775589        7.2531148113
  H        21.3735333230       11.0065281796        6.0856600076
  C        20.5404227163        9.2473529334        8.1561563289
  H        22.2149009584        8.3265644530        7.1548393398
  H        20.7340808201        8.5041128209        6.1442110786
  C        19.4009767318       10.2050451977        8.0182631215
  H        21.2060863296        9.4480284757        8.9717871964
  H        20.2705474872        8.2697318868        8.3847586693
  C        18.1951628558        9.6419112541        7.2718661472
  H        19.0624704841       10.3331675795        9.0377290774
  H        19.8208668480       11.1112876844        7.6863569193
  C        17.0745815905       10.6028276174        6.9731446880
  H        17.8706735657        8.6857478944        7.7175849043
  H        18.5590390693        9.2864022735        6.2818333914
  C        17.5008948535       12.0046451642        6.4297787957
  C        16.5235212736       11.2905534522        8.2309041272
  C        15.9233548776        9.8943709230        6.1672593531
  C        17.2597906516       13.0527208148        7.3102911172
  C        18.0504852412       12.5086435711        5.2424408741
  C        16.6805515139       12.6082234912        8.4940418546
  C        16.0737165562       10.6008587800        9.2661778608
  H        16.3779567208        9.4662546886        5.2969492822
  H        15.5423704561        9.1122946308        6.7888557186
  C        14.8009774770       10.8704041396        5.8036146898
  S        17.6209799062       14.6145979666        6.6849688941
  C        18.1391169412       13.8716052699        5.2095956578
  H        18.3389718872       11.8263542284        4.4034072664
  C        16.2599612509       13.2232078473        9.6660657395
  H        16.0057857628        9.5543879012        9.0334057018
  C        15.6594708620       11.0949508773       10.5122641945
  H        15.2160515066       11.7198399666        5.2846155909
  H        14.4221298662       11.3608608400        6.7299770864
  C        13.7564759032       10.0654481672        4.9762483922
  C        18.6730085228       14.6407876646        4.0212227636
  C        15.7183066812       12.4386267554       10.7091738350
  H        16.2257811201       14.3159684310        9.7993794184
  C        15.2478344026       10.5731495618       11.7042392303
  H        12.7398001727       10.4206576727        5.3845215814
  H        13.8425309806        8.9957547905        5.1740253613
  C        13.8170002715       10.3568949738        3.4679471818
  C        18.5930558178       16.0419606755        3.7489080668
  C        18.9858380117       13.7980030746        2.8426421865
  C        15.2907898046       12.9923778432       12.0580527473
  C        15.1213140527       11.5366113654       12.6666933361
  S        14.8836650128        8.9668158564       12.2915732219
  H        14.8665257383       10.3283692713        3.1362555407
  H        13.6503098004       11.4285504242        3.2537110202
  C        12.9086364450        9.4839648077        2.6350566816
  N        18.2489675769       17.0832508676        4.6002611293
  C        18.8305668689       16.5678144255        2.4838134083
  C        19.1697315959       14.3485527545        1.6025276327
  H        19.0195222182       12.6875573332        2.8700333149
  C        13.9668353259       13.8090948375       11.7875250026
  C        16.4124686981       13.8573559858       12.8217729144
  C        14.8627938140       11.0075898323       13.9912336409
  C        14.6609870272        9.6325946612       13.9232747687
  H        12.5081660779        8.6941699599        3.2162141905
  H        12.1397556673       10.1414949424        2.3012859707
  C        13.5128161564        8.9141968743        1.3153323855
  S        18.4365522922       18.5428180451        3.8537415289
  N        18.8888629942       17.9611078216        2.3898019315
  C        19.1427145634       15.7794715933        1.3571374386
  H        19.3211368626       13.7028006138        0.7911106052
  H        14.3414242191       14.6380818591       11.2289430340
  H        13.6935512667       14.2083714525       12.7220523643
  C        12.8325775465       13.0036257264       11.0882759384
  H        16.7712697789       14.6849487516       12.1793033710
  H        15.8511431129       14.2807884616       13.7051327436
  C        17.6425597374       13.0932771580       13.3769383875
  H        14.8431792407       11.6788725627       14.8120754394
  C        14.3305309070        8.7416366949       15.0806649970
  H        12.9811489175        7.9778389484        1.0846469683
  H        14.5135942187        8.7003048270        1.6532709789
  C        13.4508399061        9.8699165835        0.0941583356
  C        19.2654967424       16.4056606787        0.0484774701
  H        13.0819938082       12.5995556663       10.1622943562
  H        12.6636515345       12.0719849677       11.6511019696
  C        11.5473024968       13.7203511901       10.9885627532
  H        18.0394503234       12.6095352679       12.5143806769
  H        17.3417360083       12.3179537226       14.0443355607
  C        18.7661963842       13.9314832741       14.0194104304
  C        14.3748179576        7.3354698926       15.1237107782
  C        14.1428212464        9.4179055146       16.3782248765
  H        13.9382547413       10.8594129742        0.3271887096
  H        13.9220812904        9.3737589383       -0.7515589709
  C        12.0951715065       10.1584137630       -0.5340144361
  H        19.0852034621       17.5115757004       -0.0829828959
  C        19.7208595069       15.9213715735       -1.1756157839
  H        11.6808055595       14.4945528055       10.2131393398
  H        11.2847119484       14.2076863058       11.9203336190
  C        10.3854217259       12.8513030000       10.5430773116
  H        18.8314249280       14.9016286004       13.5607408502
  H        18.3550686237       14.1311053855       15.0008347188
  C        20.1476098783       13.2716689441       14.2310362965
  N        14.6390788510        6.5283447012       13.9304953765
  C        13.9200285573        6.6351823042       16.2049743198
  C        13.9084849929        8.6549490052       17.5331704507
  H        14.3263219783       10.4761895664       16.6080647868
  H        11.3382590019       10.1795703488        0.3207570507
  H        11.8464775781        9.4149393776       -1.3199963716
  H        12.0926564548       11.2049018418       -1.0109644596
  S        20.0268590376       14.2965817205       -1.5877469777
  C        19.8988781047       16.8940542320       -2.2828402425
  H        10.7239229362       12.4767342487        9.5844811654
  H        10.3364220918       12.0588760855       11.2792413698
  C         9.0368276957       13.5218217915       10.4599785492
  H        20.3956231803       12.7603144083       13.2914429953
  H        19.9976362334       12.4753655711       14.9796657232
  C        21.2490843537       14.2004477959       14.7964934914
  S        14.3897476836        4.9486565943       14.3802496888
  N        13.8828316118        5.2423372735       15.9092393878
  C        13.6464570278        7.2337734393       17.4765173960
  H        13.7273789121        9.1910234607       18.4932111011
  C        20.2538772529       14.8011957010       -3.2399341533
  N        20.1276643138       16.1553374584       -3.3893234334
  O        19.6076448847       18.0870303391       -2.2121242680
  H         8.4036766233       13.2796733027       11.3463219196
  H         9.1712065780       14.5870119672       10.4426624387
  C         8.3260735197       13.1020441660        9.1749293298
  H        20.8224806662       14.9533094706       15.4123426043
  H        22.0336068658       13.7200472011       15.4267523016
  C        21.9876167174       14.9508243868       13.7064016172
  C        13.2500237765        6.3323075641       18.5365493675
  S        20.5422456641       13.8638225007       -4.6577677771
  C        20.1589167456       16.7856620298       -4.6946819186
  H         8.8683951967       13.5795006392        8.4414048419
  H         8.4257309303       12.0523217796        9.0695568885
  C         6.8032313699       13.3880828214        9.1850418120
  H        21.2840487869       15.3027634546       12.9437497539
  H        22.5399042540       14.1721220603       13.1886235259
  C        22.9591893597       16.0923719841       14.1176506772
  H        13.4216841252        5.2973534821       18.2789596731
  C        12.7646259787        6.5705148094       19.7988086175
  H        20.6372021795       16.3746658726       -5.5025154878
  H        20.6668912652       17.7495830386       -4.6011380511
  C        18.6871784237       17.1363661069       -5.0995285714
  H         6.2793619234       13.3292321519        8.1609411912
  H         6.7576962823       14.4525930116        9.4144981993
  C         6.0452302806       12.4652282056       10.1584747468
  H        23.9521296630       15.7130611465       14.3664030204
  H        23.1448980257       16.8220883266       13.3838458230
  C        22.5820260060       16.9403794188       15.3156791087
  S        12.3781158260        8.1672090826       20.3634893866
  C        12.5892774909        5.4961972297       20.7885458647
  H        18.1617108183       17.5700925232       -4.2615427229
  H        18.1761393042       16.1833859476       -5.3857511898
  H        18.4404761400       17.7970318181       -5.9402915747
  H         6.4565462628       11.4770789376       10.1921724384
  H         6.0036282270       12.8199538356       11.1293235057
  H         4.9313719129       12.2678290884        9.9116778501
  H        23.2748536922       17.7916610376       15.2672005338
  H        21.6032875732       17.3664055249       15.2758877893
  H        22.7396168416       16.3965330757       16.2277518330
  C        12.0091095546        7.3648313264       21.9020469484
  N        11.9845014901        6.0245990469       21.8713618492
  O        12.9318819816        4.3799560277       20.5287428021
  S        11.5135523534        8.0967866016       23.4213052128
  C        11.8239971129        5.1362390994       23.0763015029
  H        11.5262164408        4.1125960323       22.7344938277
  H        11.0465756099        5.4414409101       23.7245444832
  C        13.1507602484        4.9790654385       23.7053270046
  H        13.5751366509        5.9211232748       24.0938619462
  H        13.8107012716        4.5767335665       22.9958397738
  H        12.9717436549        4.2619771005       24.4680845207
