352
 i =    30400, time =    30400.000, E =        24.8158886742
  H        11.4982801190        7.5879794968       32.4690195906
  C        11.4664247085        6.5600519267       32.4389437115
  H        12.4288381897        6.0338636814       32.3170514643
  C        10.5731490838        5.9864538247       31.4026850960
  C        10.8525146220        6.1883566047       33.8311024667
  C        11.0149233291        5.9055220697       29.9728186469
  H        10.3824267161        4.9865459886       31.8240414606
  H         9.6086650450        6.4714124765       31.4436952198
  H        11.3577908399        6.7558460862       34.5756989619
  H         9.7522236194        6.3973544913       33.8530051685
  H        10.8857522126        5.1529753986       34.1236744650
  C        10.0122797562        6.2316916139       28.9655077255
  H        11.3785888617        4.9453738646       29.7271934193
  H        11.8463511399        6.6002190027       29.9533984566
  C        10.4695601179        6.0941684642       27.4716710659
  H         9.1576137149        5.6544638842       29.1192536922
  H         9.6588048508        7.2720780072       29.0302182175
  C         9.5405687210        5.2718681422       26.5860261526
  H        11.5077564346        5.7506004657       27.5093696312
  H        10.6552720951        7.1158035768       27.0589133258
  C         8.3056840179        6.0814327654       26.3236535661
  H         9.9760391783        4.9337818024       25.6823900681
  H         9.2428166645        4.3200980890       27.1184528541
  C         7.1380578794        5.3465016524       25.6282647629
  H         7.9028893589        6.4217751043       27.2830848350
  H         8.5657876734        6.8904564930       25.6673408396
  C         6.7490438841        4.0221819991       26.3497768827
  C         7.5198801909        4.6310131426       24.4179003824
  C         5.8437002347        6.1892950447       25.4869165924
  C         7.0990329687        2.9570711376       25.5328169122
  C         6.2419275738        3.6675799949       27.6000044889
  C         7.5933504468        3.3109095056       24.3262879746
  C         7.9761379175        5.3263178058       23.2817358214
  H         6.0907151491        6.9144661611       24.7176245477
  H         5.7408266297        6.6185603339       26.5049702435
  C         4.5986166206        5.4855126539       25.0151187215
  S         6.8162668362        1.4024475149       26.3548678399
  C         6.1767863045        2.3047758684       27.7530395750
  H         6.0684267955        4.4556933674       28.3171500505
  C         7.8894568357        2.6538357419       23.1462231353
  H         8.0693268852        6.4263497730       23.4875256392
  C         8.3513947512        4.6781055104       22.0968567769
  H         4.7651370642        5.0508272411       24.0607900656
  H         4.5044362510        4.7037363430       25.7223020015
  C         3.3393925852        6.3568575142       24.9320140928
  C         5.7598544113        1.6360221835       28.9743336346
  C         8.4137529637        3.3153408703       22.0321705079
  H         7.7965369668        1.5645436923       23.1198189627
  C         8.7553699790        4.9542340687       20.8263997336
  H         2.5797887163        6.0303479100       24.2887498542
  H         3.7800898073        7.2352303267       24.6048742456
  C         2.6131781423        6.6590722933       26.2534277500
  C         5.7318945611        0.2628077564       29.2265077626
  C         5.3621839589        2.4986057644       30.0990171231
  C         8.7974953764        2.5953090186       20.7561345139
  C         9.1038693455        3.8721366339       20.0301485112
  S         9.1484219875        6.4400041047       20.0303710805
  H         1.8524795232        7.3893907209       26.1782188665
  H         3.3722107038        7.0215180503       26.9382673410
  C         1.9414594449        5.3020437058       26.7413839236
  N         6.0410624133       -0.7249020060       28.2490365364
  C         5.5246959794       -0.2936505180       30.4547275981
  C         5.0696295898        1.9165123505       31.3097886650
  H         5.2316854747        3.5324923835       29.9704955138
  C         7.7084716201        1.7424842243       20.1287608061
  C        10.0956228069        1.8196382108       20.8708556582
  C         9.4861303031        4.1574342339       18.7315522638
  C         9.5357628652        5.5480807967       18.5758246298
  H         1.2253329122        4.8625065803       26.0383986307
  H         2.7195353948        4.5497825998       26.9460994611
  C         1.0843726304        5.6349269497       27.8570342971
  S         6.0402466851       -2.2195211267       28.9625442952
  N         5.5928264271       -1.7298637781       30.4671050764
  C         5.2168915079        0.4251530288       31.6062115437
  H         4.6781513658        2.6517882814       32.0525694409
  H         7.4802426125        0.9483733436       20.8204002996
  H         8.0174678473        1.1781259608       19.2619148360
  C         6.3829125452        2.4460285359       19.8637556183
  H        10.3134590743        1.3240800910       19.9230170762
  H         9.8570608138        1.0185185980       21.5387667508
  C        11.4354229524        2.5281650838       21.2210029375
  H         9.7132963912        3.4760219943       17.9725199894
  C         9.8045427435        6.2138469808       17.2355003406
  H         0.2325285430        4.9464472949       27.8859507456
  H         0.7538369959        6.6660258932       27.8445259482
  C         1.9559052948        5.5841138127       29.1939858652
  C         4.9765111861       -0.3101520321       32.8460662381
  H         6.5294859237        3.2269625258       19.1339149956
  H         6.1023083072        2.9816554969       20.8060312121
  C         5.2410754133        1.6019555739       19.4172296187
  H        11.2592902218        3.3053613579       22.0142008510
  H        11.6773235308        3.1181091567       20.3507008856
  C        12.4656773838        1.5287345815       21.6825818100
  C         9.8015274711        7.5732035152       17.0819664665
  C         9.9276213669        5.3830643306       16.0403780115
  H         2.6420958269        4.6807665156       29.2236986141
  H         2.5789395785        6.5166903888       29.2052567070
  C         1.0168091068        5.5575870300       30.4404240628
  H         5.1209189225       -1.3667800032       32.7505762581
  C         4.6171725875        0.1449443099       34.0994495848
  H         5.1557624153        0.7876699371       20.1302798907
  H         5.5349244446        1.1080436374       18.4832410713
  C         3.9673269772        2.4436761722       19.2645291946
  H        12.2063434807        1.3308185721       22.7631848861
  H        12.3994225790        0.5740278269       21.0581755383
  C        13.8137817536        2.2087137810       21.6506428094
  N         9.6335229690        8.4702396858       18.0930349117
  C        10.1316657169        8.1235447224       15.8961115121
  C        10.1870569431        6.0318218920       14.8328880554
  H         9.8759251568        4.3205484057       15.9951022593
  H         1.6542924057        5.6752415403       31.3397958049
  H         0.3240980564        6.3577234304       30.4129815465
  H         0.4722321309        4.5911519590       30.3907942253
  S         4.2000147929        1.7045721087       34.5117068229
  C         4.6153664021       -0.8949977030       35.1543858126
  H         3.6578072115        3.0305451613       20.1229316090
  H         4.1856305659        3.2826468320       18.5630245664
  C         2.7961605102        1.6868545778       18.6692586988
  H        13.9726021954        2.6695480844       20.6763928924
  H        14.4795972242        1.3333225176       21.7184022997
  C        14.1209021641        3.2273335817       22.7375852571
  S         9.7593818716       10.0118072546       17.5072211810
  N        10.1981538751        9.5888189065       15.9978117890
  C        10.3397545252        7.4550994183       14.6916648363
  H        10.1781614974        5.4466459711       13.9606715267
  C         3.9969179860        1.0307264470       36.1313981077
  N         4.2791335897       -0.2804538954       36.3046479480
  O         4.8416601712       -2.0856842231       34.9314089781
  H         1.9569403835        2.2276767923       18.6100312945
  H         2.6138904592        0.8867545425       19.4581881883
  C         3.0647226735        0.9129382107       17.4150775570
  H        14.8449911048        3.9253181602       22.3258270651
  H        13.1670312196        3.6751441457       23.0432796132
  C        14.5718352800        2.4493376502       23.9475191278
  C        10.6768109546        8.1610544014       13.5240235072
  S         3.7031697102        1.9735366710       37.5608705866
  C         4.3812049624       -0.9504157714       37.5704060724
  H         2.2323225043        0.9897808544       16.7162213664
  H         3.8999524805        1.4281324299       16.8475780676
  C         3.2009601447       -0.6191531820       17.5943385497
  H        14.3988619890        1.4041332492       23.9349108340
  H        14.0744813946        2.8045844585       24.8499006637
  C        16.0810591807        2.6398068148       24.1975317496
  H        10.5479321122        9.2357454479       13.5758809128
  C        11.2258518490        7.7931613464       12.3494689065
  H         3.5817087870       -0.6592548606       38.2709296247
  H         4.2900375000       -2.0007196151       37.4126831669
  C         5.7377536068       -0.6585735814       38.1755531111
  H         3.7229397422       -0.8770541135       18.5487797425
  H         3.7272671533       -1.0539927841       16.7659260799
  C         1.8386214215       -1.3224365558       17.5767625576
  H        16.3509703774        3.6533889027       24.5135168567
  H        16.3926125669        1.9844704728       24.9252806379
  C        16.9044236422        2.2258627671       22.9363644885
  S        11.7104857409        6.2621746478       11.9951205433
  C        11.5292639445        8.8646110027       11.3820416445
  H         6.4032289494       -0.6378297312       37.3018100915
  H         5.7509604033        0.3393103202       38.5860803044
  H         6.0692272193       -1.2511198784       39.0511544895
  H         2.0066461331       -2.3951265620       17.5809221533
  H         1.3071611306       -1.1563590869       16.6421461199
  H         1.2040804425       -1.1158748774       18.4240074430
  H        17.0515615241        2.9909781826       22.2272021435
  H        16.4480818989        1.3503948782       22.5385697349
  H        17.9394132771        2.0288165874       23.2159280864
  C        12.3344493759        6.9762684521       10.5046220624
  N        12.1876164929        8.3243444183       10.3792059387
  O        11.2197469059       10.0439048502       11.5032650324
  S        13.3688799354        6.0218770718        9.3543524720
  C        12.7029358485        9.0823543934        9.2107748730
  H        13.0977091192       10.0420401949        9.5047278918
  H        13.6334278489        8.6631568913        8.8184563530
  C        11.5918049521        9.4286865449        8.2731161023
  H        11.4693870454       10.4646276279        8.1451159115
  H        11.7952657045        8.9448418720        7.3380912824
  H        10.6787063650        9.0708705572        8.6672943462
  H        20.7146183875       11.4391029850        3.6156224097
  C        21.3268265325       10.5371069231        3.7906559973
  H        20.6508907877        9.6468279601        3.9966635684
  C        22.3593244483       10.7796755043        4.8535231910
  C        21.9238807644       10.3282632881        2.3947642756
  C        21.6620101780       10.8780478850        6.2031689954
  H        23.2322728100       10.1389205967        4.8866190017
  H        22.7431319877       11.7620120651        4.6000350887
  H        21.2212360987        9.8755576205        1.6311689396
  H        22.8655471705        9.6637613938        2.3249515798
  H        22.1688682757       11.3032517220        2.0319875580
  C        21.2158187429        9.5973193721        6.7135687123
  H        22.1572482213       11.4423580397        6.8993127759
  H        20.8316322550       11.4953124560        6.0095487402
  C        20.4962666617        9.7756984457        8.0927470027
  H        22.0771068029        8.9524844904        6.7944168121
  H        20.3861475278        9.1045398052        6.1070440915
  C        19.1355758039       10.5612191542        8.0777202669
  H        21.2093639201       10.1979075077        8.7855943817
  H        20.2994738556        8.8323605810        8.5677804178
  C        18.0052846964        9.7675758400        7.3444085952
  H        18.8292719098       10.9193770333        9.0465357380
  H        19.1949262288       11.4750614377        7.5287747802
  C        16.6992933549       10.5832431133        7.0634280796
  H        17.6992960424        8.9002474716        7.9566696510
  H        18.3282746492        9.2492101243        6.4430276413
  C        16.8923567388       11.8506744482        6.4101206415
  C        16.2621245526       11.2278311962        8.2964450493
  C        15.6527490226        9.7398950509        6.3096212254
  C        16.7854357913       12.9664731558        7.2674511128
  C        17.3807395250       12.1897800032        5.1508682915
  C        16.2493401549       12.5528879066        8.4476800570
  C        15.8211160844       10.5481043978        9.4774038356
  H        16.0972044473        9.4708851597        5.3670041511
  H        15.4822878586        8.8944589023        6.9311894636
  C        14.4091874869       10.4708417603        6.0003866257
  S        17.4294692514       14.4062065885        6.5329255083
  C        17.7444557193       13.4875727421        5.0663790672
  H        17.2831184267       11.3756139124        4.4521401178
  C        15.8903053216       13.1704458190        9.5829853524
  H        15.8218862157        9.4843771820        9.4294504236
  C        15.4950119189       11.1693849280       10.5997001399
  H        14.6056521023       11.4646824142        5.6875051220
  H        13.8900777137       10.6401977327        6.9027316714
  C        13.5209863975        9.7456128089        4.9871323926
  C        18.1398500486       14.1681893170        3.7925621839
  C        15.4496325337       12.4819003991       10.7572496737
  H        16.0161593731       14.2121698105        9.7538997504
  C        15.0284070453       10.7936495061       11.8142158753
  H        12.5763340742       10.2911801383        5.0309438809
  H        13.3279879152        8.6866382017        5.3731107021
  C        14.0611178829        9.8221721709        3.5724271978
  C        18.0067353239       15.5034332622        3.4428369935
  C        18.6564170816       13.3343512565        2.6572139812
  C        14.9074425244       13.1658711236       11.9291134119
  C        14.7155264205       11.8659959480       12.6754641946
  S        14.6509534898        9.3544855939       12.5646486802
  H        14.7921899860        9.0518120710        3.2996627574
  H        14.6119554280       10.7957318970        3.4129536453
  C        13.0368296493        9.7662566284        2.4056238667
  N        17.4327080686       16.4788384542        4.2811118923
  C        18.3631760785       16.0525077595        2.2301262836
  C        18.8809093187       13.8535092858        1.4295865071
  H        18.7798252762       12.2420677941        2.8311153951
  C        13.5505215829       13.8416168988       11.7802808433
  C        16.0154052234       14.0623716675       12.6544454183
  C        14.1363463955       11.4869107623       13.8745304086
  C        14.1563616129       10.1345929795       13.9776329697
  H        12.3843497228        8.9204976588        2.7084027992
  H        12.3740417606       10.5937816149        2.3515666167
  C        13.6208441200        9.4665790937        1.0048807387
  S        17.4248793672       17.9144737242        3.5223888159
  N        18.0999356247       17.4336555449        2.1606625885
  C        18.7359855561       15.2671243680        1.0941107759
  H        19.4318898296       13.1998092889        0.7629468550
  H        13.6404989481       14.6515855793       11.1053967369
  H        13.3305115211       14.3389519626       12.7443587594
  C        12.2973677076       12.9867431169       11.4561864033
  H        16.3555593841       14.8419343436       11.9327207813
  H        15.5718840857       14.6191462701       13.5179051191
  C        17.2680613773       13.2656097963       13.1912374220
  H        13.8846966426       12.1690357844       14.6323274526
  C        13.8122648542        9.3889933297       15.2369557025
  H        14.2160409563        8.6113778213        1.0441518214
  H        14.2155781491       10.3045409645        0.6348297636
  C        12.4526741732        9.3265534779        0.0083140225
  C        18.8801348164       15.8052362375       -0.2154819174
  H        12.5369116675       12.2671855815       10.6978538804
  H        11.9728824861       12.5259642954       12.3540487957
  C        11.0803697919       13.6907037489       10.9513170001
  H        17.5428010977       12.4621658530       12.5055718702
  H        17.0190151273       12.8004141873       14.1448310782
  C        18.4408246152       14.2992153351       13.4547874887
  C        13.8130019722        7.9700230871       15.4605378745
  C        13.5841927404       10.2300257968       16.5202589687
  H        12.4092319585        8.2927083892       -0.1835754324
  H        11.5156232081        9.6386595461        0.4343331503
  C        12.8462537065       10.1661101086       -1.2232575520
  H        18.7100855934       16.7814732757       -0.2548408796
  C        19.2616304546       15.2806602903       -1.4145089807
  H        11.4740736198       14.3794788379       10.2189430757
  H        10.6504116353       14.2907362492       11.7828999591
  C        10.0125532294       12.8599244955       10.3009147642
  H        18.7377386243       14.7698062450       12.5944266216
  H        18.0831194332       15.1575327676       14.0062579064
  C        19.7164777694       13.8488924435       14.2662762293
  N        14.1133253044        7.0308634252       14.5112771454
  C        13.4827196328        7.3992914239       16.6907097568
  C        13.3364650567        9.5869785918       17.7613988311
  H        13.6013116729       11.3501627027       16.5070170301
  H        11.9130089306       10.5005202675       -1.7580496370
  H        13.4178187446        9.5991426872       -1.9627197096
  H        13.3739337286       11.0548507931       -0.9001403847
  S        19.7542643250       13.7119944507       -1.8895262315
  C        19.1039989481       16.2107544642       -2.5606092939
  H        10.4659440388       12.1020367153        9.7376601698
  H         9.5318644663       12.2021600203       10.9690396922
  C         9.1704389748       13.7201451671        9.4128832100
  H        20.2261922330       13.1216060422       13.6913819108
  H        19.4068946296       13.4208524341       15.2243615670
  C        20.7117510079       14.9976266092       14.2531756856
  S        13.9817777828        5.5770662799       15.2109603613
  N        13.5881474489        5.9845880445       16.7161013333
  C        13.0685779003        8.1371585738       17.8114113737
  H        13.1297245640       10.2412999073       18.6178071185
  C        19.9711602705       14.3870855181       -3.5280064064
  N        19.5673596543       15.6788959147       -3.7047162433
  O        18.7981189795       17.4010673849       -2.4884298942
  H         8.6617869464       14.5156333992        9.9560636246
  H         9.8113584111       14.1416966464        8.6712707701
  C         8.1206100643       12.8438484934        8.7444815000
  H        21.7183035347       14.6002140204       14.3441846916
  H        20.7154589729       15.4641733515       13.2632071018
  C        20.5061288175       16.1675548353       15.2533739308
  C        12.7244003510        7.4542499632       19.0303521818
  S        20.2546916777       13.3936286782       -4.9511233675
  C        19.4895909773       16.4692065853       -4.9484727248
  H         8.6915689113       12.7025413719        7.8528932987
  H         7.9147899570       11.8356651741        9.1628800186
  C         6.8563428663       13.6404521051        8.3637674975
  H        20.2736197544       15.7199254751       16.1788243391
  H        19.6828800015       16.7888137900       14.8762747220
  C        21.6803276109       17.0954185028       15.4552563369
  H        12.8926497249        6.4452857733       19.0650367508
  C        12.2922646838        7.9424312485       20.2940593499
  H        20.0370061955       16.0966612230       -5.7723628470
  H        20.0161403165       17.4472631113       -4.8056687465
  C        18.1295526992       16.6181530762       -5.5205027174
  H         6.3792175364       12.9469044031        7.6536168324
  H         7.2002152717       14.5722168043        7.8281639307
  C         5.9681844561       13.8980290528        9.5975700888
  H        21.3902825189       17.7851475075       16.2252152976
  H        22.5529782181       16.6186906352       15.8282850725
  C        21.9211464102       17.8213041255       14.0934316720
  S        12.0308341681        9.6079970017       20.7469651735
  C        12.1274000651        6.9785310284       21.4314976455
  H        18.0808757524       17.3655956645       -6.3429804435
  H        17.4432249732       16.9005703165       -4.6961346431
  H        17.7976417689       15.6175069272       -5.8012404155
  H         6.4461623459       14.6619696025       10.2561346908
  H         4.9623345842       14.1438811904        9.2753527029
  H         5.9639223971       12.9814031123       10.2225434522
  H        21.0150096314       18.4163206030       13.8535485777
  H        22.6789633632       18.5712211931       14.1950206269
  H        22.1716981408       17.1485858210       13.2366769169
  C        11.5152810993        8.9472779838       22.3164225827
  N        11.5540163767        7.6259551084       22.4863045774
  O        12.2599017423        5.7750264443       21.3270306655
  S        11.0344732462        9.9901265933       23.6708594612
  C        11.2465567642        6.9211693962       23.7461776801
  H        10.8744892828        5.9127741703       23.5158876366
  H        10.5491989967        7.5448606724       24.3067395944
  C        12.5379866092        6.9282283065       24.5663425377
  H        13.2868155886        7.6182546922       24.1011806250
  H        12.9762640342        5.9013069341       24.5472593220
  H        12.3320687463        7.0591711017       25.6422191915
