352
 i =    70200, time =    70200.000, E =        25.0077367791
  H        12.3612154964        4.4989355922       31.8678605212
  C        11.7763008771        5.2232372100       31.2865634341
  H        11.0423396032        4.6920116635       30.6658126421
  C        12.5682495022        6.0195233568       30.2145626811
  C        11.2539711677        6.1288775911       32.3547209046
  C        13.1082997016        5.2992978691       28.9438530364
  H        11.9086080239        6.8675404798       29.9094388688
  H        13.4417045474        6.5277345741       30.7257125710
  H        11.7680022435        5.8303605743       33.2506748313
  H        11.2498722618        7.1844778722       32.0550416822
  H        10.1715880662        5.9264364919       32.4105740553
  C        11.9987447085        4.5720120782       28.1412626335
  H        13.9343326020        4.6549566171       29.3263418250
  H        13.5585430702        5.9950326698       28.3612252832
  C        10.8256817823        5.3461470872       27.7116790354
  H        12.3933065643        4.1850376140       27.2127601342
  H        11.7611339938        3.6047257796       28.6576860796
  C         9.8777044831        4.5579376954       26.6812498050
  H        11.1793454620        6.2086756447       27.2276046455
  H        10.1746756277        5.6896781935       28.5083442416
  C         8.7828787259        5.4744257639       26.0810170899
  H        10.4906567627        4.3136467457       25.8533727305
  H         9.4413196593        3.6419318229       27.1584913340
  C         7.6914357250        4.7111927959       25.2381100065
  H         8.1905627891        5.8511628440       26.9114331331
  H         9.1765970917        6.3100333770       25.5072035108
  C         7.2717784982        3.3110823832       25.8692408516
  C         8.2018565299        4.0264451983       24.0553985781
  C         6.4513645336        5.5687513255       24.7918716253
  C         7.6576893118        2.2553195806       25.1227123149
  C         6.7261064850        2.9270982304       27.1182832641
  C         8.0999112559        2.6982702587       23.8959500725
  C         8.6461152620        4.7389021887       22.8973052137
  H         5.9380979803        5.0041839008       24.0366864844
  H         6.9074285001        6.4142134519       24.3083135382
  C         5.4243358107        5.9320558378       25.8289722336
  S         7.2721620688        0.7686039414       25.8592177845
  C         6.6465009544        1.5429795854       27.2348574276
  H         6.6219420291        3.6596555388       27.8764598310
  C         8.5098086036        2.1328284687       22.7422132087
  H         8.7133692759        5.8206329297       22.9341007594
  C         8.9405922293        4.1818946355       21.7141120893
  H         5.1228067197        4.9582136959       26.2761910764
  H         5.8687667238        6.6836560599       26.5031573762
  C         4.0538021718        6.3542489982       25.3134180911
  C         6.0852241842        0.8852982474       28.4991772125
  C         8.8927986390        2.8554490101       21.6226029366
  H         8.4146440052        1.0544807722       22.4945232555
  C         9.3419199946        4.5964205503       20.4926300722
  H         3.6385781561        5.6596191655       24.7109100087
  H         4.1247189632        7.3521317835       24.8761384946
  C         2.9456660360        6.3794884907       26.4197879043
  C         6.2053300178       -0.5015746718       28.7261172772
  C         5.7167583228        1.7467496558       29.6270564932
  C         9.2401550617        2.1225481882       20.3541472424
  C         9.5423256303        3.4972156382       19.6541250396
  S         9.6396958396        6.1315399303       19.8214032770
  H         2.0568052912        6.9629072955       26.0882201984
  H         3.3616872046        7.0032460676       27.1521679770
  C         2.4640285391        5.0108382084       26.8047648004
  N         6.4100796917       -1.4699220295       27.7383795664
  C         5.9862245612       -1.0541610455       29.9857266060
  C         5.3593495935        1.1665692128       30.8511558222
  H         5.7270540460        2.8171328999       29.5256649091
  C         8.0456549096        1.4076140897       19.7187681576
  C        10.5027943307        1.2509171672       20.5057098133
  C        10.0474438223        3.9664232035       18.4043344772
  C        10.0195738340        5.3339415136       18.2718506045
  H         1.5593103270        4.7255502220       26.3406783742
  H         3.1691218016        4.1471732580       26.5257605390
  C         1.9922287862        4.9629166720       28.3133548134
  S         6.3265895132       -2.9152388001       28.4934989948
  N         6.0033688770       -2.4136121000       29.9703141022
  C         5.5690507025       -0.3047680535       31.1268219405
  H         4.9958720273        1.7661054857       31.6043149541
  H         7.7861444763        0.6501203141       20.4718538292
  H         8.4120839306        0.7316151554       18.8958875676
  C         6.9624622672        2.3334929823       19.3090804495
  H        10.6365091454        0.8559914249       19.5411216592
  H        10.2697499681        0.3077113518       20.9870579702
  C        11.7024301515        1.9378405632       21.2560443903
  H        10.3713757796        3.2171032726       17.6684443201
  C        10.3503925406        6.0665801468       17.0236050399
  H         1.0944152109        4.4386925479       28.4558139021
  H         1.6170771440        5.9876233956       28.4290590619
  C         3.1788747415        4.6397724701       29.3154921158
  C         5.3175306625       -0.9957201115       32.3236218113
  H         7.3998136443        2.7621441695       18.4301735210
  H         6.8540611801        3.1602257768       20.1188831077
  C         5.5512826090        1.8116745240       19.0051659111
  H        11.3190793375        2.0773630450       22.2835617233
  H        11.8636995543        2.9179873136       20.8279024834
  C        12.9586542738        1.1646102445       21.4735296329
  C        10.4243407564        7.4823822385       16.8378889908
  C        10.5683156665        5.3000565081       15.7698028603
  H         3.4383959505        3.6104684441       29.2949485829
  H         4.1074229265        5.0264384297       29.0050315024
  C         2.7285429235        4.9241516763       30.7216670994
  H         5.4725041664       -2.0540492543       32.2614134969
  C         5.0347410867       -0.5889728193       33.6497898804
  H         4.8860869856        2.6633582580       19.0859767171
  H         5.4485502763        1.0108712948       19.7723318712
  C         5.4624463775        1.1568093031       17.6492461344
  H        12.6855765220        0.3767918627       22.0715452315
  H        13.3674360954        0.7257543889       20.4977130906
  C        13.9301120317        2.0657469999       22.2092251598
  N        10.0263884696        8.4456333062       17.8048394749
  C        10.7155357071        8.0679202066       15.6649114951
  C        11.0294483131        5.8445142665       14.6258304502
  H        10.4305553317        4.2032180120       15.8319446335
  H         2.6289033051        6.0475018523       30.9649046610
  H         1.7301582370        4.4987648077       30.9297584447
  H         3.4920262024        4.4755721595       31.3407910415
  S         4.7785756939        1.0607835073       34.1360917398
  C         4.9944512225       -1.5683441860       34.8553167353
  H         5.8969504823        1.6537806647       16.8004868211
  H         5.9109136463        0.2355573145       17.7646243825
  C         3.9530289866        0.8539002771       17.3454510801
  H        13.5190496826        2.5283769965       23.1670100627
  H        14.1480635793        2.8443684640       21.4767525631
  C        15.2244901782        1.3039957965       22.5287791139
  S        10.2519585851        9.8937192943       17.1715790689
  N        10.5566696349        9.4351985445       15.6306476055
  C        11.1190635841        7.3333920399       14.4763889668
  H        11.1781921938        5.1524495926       13.7985103299
  C         4.4981296723        0.4717761643       35.8034460884
  N         4.6220776335       -0.8620323717       35.9822478648
  O         5.1944016897       -2.7724257811       34.7873170224
  H         3.8745184819        0.6016379211       16.2994727380
  H         3.4792399097        1.8838306326       17.4368340425
  C         3.2741705626       -0.1407193302       18.2850271931
  H        15.1276526288        0.7407082588       23.4641594841
  H        15.3405783794        0.5996500469       21.7067984024
  C        16.4222757465        2.1668431405       22.5102703777
  C        11.5298524836        7.9909368945       13.2931107253
  S         4.3653206705        1.3796014220       37.2878207991
  C         4.6713806532       -1.6252001695       37.2519590591
  H         3.5414837604        0.1483036653       19.2987495885
  H         2.2488415449        0.1132378786       18.2929840214
  C         3.4441817833       -1.6698949118       17.9857025821
  H        16.0589823921        2.9409813380       23.2245171038
  H        16.6623126418        2.5871077877       21.5282505508
  C        17.6174123416        1.4726628688       23.1631400449
  H        11.5030944803        9.0418922222       13.4289337881
  C        11.9735884468        7.6208355306       12.0080700623
  H         3.9910650881       -1.1330918676       37.9579342168
  H         4.2498401691       -2.5846900018       36.9216707484
  C         6.1437561341       -1.7968483153       37.8531514620
  H         3.2689499160       -2.2554696037       18.9311508726
  H         4.5177309055       -1.9329131354       17.7497767960
  C         2.4719359665       -2.1353856430       16.8542139527
  H        18.0150303981        2.1019800627       23.9875260159
  H        17.2644016133        0.5037430821       23.6267758042
  C        18.9351924235        1.3071124667       22.3998041592
  S        12.4970019135        6.0246301572       11.4711464731
  C        12.0332510778        8.6944654253       11.0023731691
  H         6.8152663516       -1.1385123502       37.2551331698
  H         6.1967757526       -1.6564120294       38.9281460218
  H         6.5339938906       -2.7891604334       37.7109046421
  H         1.9034233461       -3.0779638044       17.0527697155
  H         3.0829065797       -2.2848871472       15.9538401568
  H         1.5889759344       -1.5451684307       16.6810491800
  H        19.3664551685        2.1655713768       22.0266245577
  H        18.8533170982        0.7004378832       21.5124515411
  H        19.6505947697        0.8651038016       23.0535515025
  C        12.6959651097        6.8017465676        9.8704358774
  N        12.5478752403        8.1461955535        9.9021457043
  O        11.5976256968        9.8172049710       11.2604574976
  S        13.4166068164        5.9147492053        8.5097243438
  C        12.6373042766        8.9450610366        8.6650956777
  H        12.9120018673       10.0315594734        8.8336702563
  H        13.5003878150        8.6727653220        8.0386363517
  C        11.4200787726        8.8571500037        7.8194642644
  H        10.6596504379        9.1765524407        8.4299252477
  H        11.5541967515        9.4483967278        6.8582132927
  H        11.2858111996        7.7509253803        7.5388746155
  H        22.4960823765        9.1528780453        3.6730341035
  C        22.9372626153       10.0898850319        3.4631006559
  H        24.0465951102       10.1322999740        3.2432641687
  C        22.5858431397       11.0632780520        4.5592863720
  C        22.3698532874       10.4862344278        2.0869716897
  C        21.2999783214       10.7355463797        5.3755130562
  H        23.4290246123       11.1001750731        5.2716512240
  H        22.4324631960       11.9916513317        4.0272109251
  H        22.8479226041       11.4135892003        1.7168231973
  H        21.3041725472       10.5471799300        1.9554458733
  H        22.7315282286        9.7916139237        1.4636630640
  C        21.2340669327        9.3650131525        6.1531915434
  H        21.1497171521       11.5319552978        6.0855668006
  H        20.4498188780       10.7740334036        4.6979766071
  C        20.5998108448        9.3440306980        7.5254852050
  H        22.2293988847        9.0758511095        6.3444144942
  H        20.7216843902        8.7126811799        5.5446776089
  C        19.2511214251       10.1091202555        7.5802582708
  H        21.3714115529        9.5443199999        8.2762563243
  H        20.3428343798        8.3217078900        7.7120104986
  C        18.0133223873        9.3785460487        7.0362425635
  H        18.9997443883       10.2857316349        8.6081467885
  H        19.3181723173       11.1410976338        7.2969099980
  C        16.8596358873       10.3298122556        6.7109708634
  H        17.6376119209        8.5570793621        7.6689027935
  H        18.2002885277        8.8851924830        6.0927114063
  C        17.3166607471       11.6890512068        6.1388105536
  C        16.5221213074       11.0663771410        7.9694657862
  C        15.6120895644        9.8179174994        5.9574738930
  C        17.0631684986       12.8011738701        6.9487787140
  C        17.7045833461       12.0982511227        4.8420094282
  C        16.5205811714       12.3936673839        8.1159528691
  C        16.1248900031       10.3719590604        9.0914000420
  H        15.9817561431        9.3905008700        5.0602041321
  H        15.3105166265        8.9274884821        6.5065080920
  C        14.4709560729       10.7489340550        5.7659676077
  S        17.3716881376       14.2932521499        6.1818182609
  C        17.7923294535       13.4581085452        4.7651866334
  H        17.8972083025       11.3834824788        4.1363249289
  C        16.0820759742       12.9439535653        9.3424914800
  H        15.9381162568        9.3526833966        8.9067636171
  C        15.7233134165       10.8910174376       10.2405258078
  H        14.9301762970       11.7425039259        5.3978899377
  H        14.0464581861       10.8967694398        6.7799177870
  C        13.4546081038       10.1128747970        4.8074718425
  C        18.2653348958       14.1899154993        3.5862328714
  C        15.7357572023       12.2256480053       10.4700454483
  H        16.0994448470       14.0173791301        9.5081540536
  C        15.3269918676       10.4795978727       11.5033099307
  H        12.4204188062       10.4309537396        5.2218719253
  H        13.4435352485        9.0470459120        4.9997998845
  C        13.7343352438       10.4679492691        3.4267803737
  C        18.2525473838       15.6007504046        3.3665211392
  C        18.8263823364       13.4139834841        2.4610905782
  C        15.3018167072       12.8814895440       11.7263579545
  C        15.0699774359       11.5032354761       12.3424628011
  S        14.9791414322        8.9606012467       12.2256816667
  H        14.8560319949       10.4766367014        3.3215569485
  H        13.5604777832       11.5353023381        3.3267305466
  C        12.9694559868        9.6336550014        2.3761153750
  N        17.8450054486       16.5535040586        4.3311478177
  C        18.5682562817       16.1521599819        2.1646651695
  C        19.2187649696       14.0061355756        1.2474648370
  H        18.8890937342       12.3107174837        2.6035951820
  C        13.9786269742       13.6620374602       11.5778964401
  C        16.3451922595       13.6905408312       12.5220653874
  C        14.5379632537       11.1304169259       13.5594290316
  C        14.5613006375        9.7601286033       13.6913984750
  H        12.6369509818        8.7301254789        2.9042014446
  H        12.1568053881       10.1922719686        1.9523457631
  C        13.7926379071        9.1699903424        1.1246263634
  S        18.0558817188       18.0455353851        3.6292011226
  N        18.5658450357       17.5816731337        2.1411444936
  C        18.9635828164       15.4128306377        1.0733891693
  H        19.4957252445       13.4346131303        0.4257812758
  H        14.2662445798       14.5619327330       11.0662709633
  H        13.7469044150       14.0459272895       12.5957702274
  C        12.8498112639       12.9242767858       10.8931460238
  H        16.5603717702       14.6358662527       12.0275804742
  H        16.0696265124       13.9984419429       13.5074719632
  C        17.6259687779       12.9550154213       12.8672047809
  H        14.2721861600       11.9320324004       14.2217234532
  C        14.1621452980        9.0041296743       14.9273600618
  H        13.2014896302        8.3542622444        0.7628150678
  H        14.7559973236        8.7136046590        1.3599001562
  C        13.7424166392       10.2911227351       -0.0008722065
  C        19.2471295798       16.1593106760       -0.1497391750
  H        13.0749808387       12.6202357199        9.8603251302
  H        12.6434257915       11.9782723118       11.4141899830
  C        11.5956827832       13.8406675379       10.8953850422
  H        18.0717509938       12.4367612383       11.9381432793
  H        17.4513101111       12.1377475696       13.5718442842
  C        18.6100522004       13.9845202983       13.5573300950
  C        14.1818368797        7.5449259864       15.0636691672
  C        13.6904979775        9.7939078798       16.0367028214
  H        13.6716600181       11.2812296616        0.4501915240
  H        14.6659487417       10.1187509815       -0.5738313514
  C        12.4263097057       10.0668308229       -0.8089040715
  H        19.2646135354       17.2362713036       -0.0794496846
  C        19.5047139810       15.7237770124       -1.4595106284
  H        11.6608860544       14.6559559123       10.1431878792
  H        11.5111383992       14.4025731813       11.8418282910
  C        10.4124816718       12.9762053434       10.5411648733
  H        18.9655873741       14.6704160080       12.8310241395
  H        18.0150403739       14.5036752650       14.3323288346
  C        19.7272818908       13.3913090913       14.3249678160
  N        14.5691112525        6.6659436977       14.0643280581
  C        13.7805468429        6.9661784599       16.2480299836
  C        13.4624890137        9.2038766002       17.2551602567
  H        13.5650283618       10.8361062454       15.9334818055
  H        12.2881862425       10.8459274431       -1.5224900133
  H        11.5120767684        9.8775925935       -0.2423532638
  H        12.5737972741        9.2110612511       -1.5073538544
  S        19.8269812682       14.0952789145       -2.0238449611
  C        19.5448125480       16.6752448136       -2.5447014363
  H        10.9207289729       12.1061424787       10.0795842147
  H         9.9266008414       12.7255445949       11.4597722222
  C         9.4985206092       13.6727209369        9.6159825981
  H        20.4037617521       12.8900889302       13.6551337506
  H        19.3781662366       12.6836978047       15.0247595025
  C        20.5018417228       14.4571226139       15.0695213503
  S        14.5846470649        5.2035046151       14.6840873050
  N        13.9758774908        5.5647343710       16.1469279718
  C        13.5592205149        7.7412241238       17.4193247019
  H        13.1127193895        9.7780418412       18.1025752823
  C        20.0620073226       14.7738988543       -3.5865870657
  N        19.9415373570       16.1174169620       -3.7201166369
  O        19.4085432273       17.9065075103       -2.3181426949
  H         8.9097876972       14.5034771976       10.1032099211
  H        10.0453871108       14.0953355945        8.7670819290
  C         8.6628287873       12.5597598879        9.0143009749
  H        19.8233417143       15.1619465269       15.5657561786
  H        21.1971763110       14.0383422446       15.7951117910
  C        21.3345131862       15.3388242335       14.1322205258
  C        13.2919246773        7.0531065094       18.6275488262
  S        20.4861942577       13.9133046278       -5.0575261567
  C        19.9144637375       16.9062888497       -4.9309487152
  H         9.2653487145       12.3110016830        8.0447665282
  H         8.7486935605       11.6633456239        9.6950520259
  C         7.2198058315       12.8853593888        8.5856788018
  H        20.6568030747       15.9729849219       13.5220112050
  H        21.8518722503       14.6397920275       13.3536329085
  C        22.3093867688       16.2753694233       14.7983253524
  H        13.6231176343        6.0595564652       18.4907805743
  C        12.9228254025        7.4400995839       19.8884896611
  H        20.6973274696       16.5402785208       -5.5829164110
  H        20.3482197822       17.8281357992       -4.6693964859
  C        18.5040332603       17.0421874821       -5.5839494897
  H         6.9649558644       12.0630745769        7.9372223885
  H         7.3358696374       13.7265358502        7.9352899569
  C         6.3031565778       13.0332747830        9.8438301492
  H        22.4484798786       15.8647501502       15.8254220516
  H        23.3177282345       16.2577424453       14.4021046483
  C        21.7525564110       17.7240491614       14.8163674664
  S        12.4432008493        9.0281635501       20.4138325117
  C        12.6944984475        6.3566347225       20.9153982295
  H        18.2238496132       15.9794393733       -5.7466338750
  H        18.4683308656       17.5787145838       -6.5129107905
  H        17.7655113130       17.5025934184       -4.9382502027
  H         5.5038291891       12.2879639320        9.8532139563
  H         6.9971064703       12.9264831688       10.7300958380
  H         5.8777444157       14.0289508923        9.7552189608
  H        20.8146611197       17.8664041756       15.3817189717
  H        22.5627896927       18.3888386804       15.3030538106
  H        21.5075727392       18.0289527268       13.8216859927
  C        12.1295117358        8.2313673081       22.0125683125
  N        12.2071019723        6.8981500279       22.0427105191
  O        12.8890285293        5.2357968262       20.6093187436
  S        11.2596317210        9.0245727809       23.3511017001
  C        11.9260091905        6.0742808214       23.2145709812
  H        11.5991918955        5.0947262908       22.9413964400
  H        11.2196570142        6.5925371739       23.9420374105
  C        13.2858644328        5.9001030747       23.9478181064
  H        13.7696106864        4.9289345047       23.7254365969
  H        13.1353476719        6.1013063556       25.0387052375
  H        13.8935028802        6.6917923967       23.5501502511
