352
 i =    67900, time =    67900.000, E =        25.3559923333
  H        10.6419263135        4.6793849618       31.7052777659
  C        10.9602857683        5.7225276188       31.9999034345
  H        10.0672993642        6.1145132995       32.4968538596
  C        11.2315313352        6.6476180957       30.8154270091
  C        12.0719606858        5.6380074911       32.9983592279
  C        11.9426768161        5.8921446016       29.6361508462
  H        10.2537390392        7.0674115978       30.4595590768
  H        11.8582433311        7.4567489441       31.2088325777
  H        11.7781834130        4.8028916115       33.6373535472
  H        13.0084258853        5.2758555888       32.5931493888
  H        12.2196027965        6.5067306146       33.5724231498
  C        10.9063628041        5.1969948556       28.7539019929
  H        12.5904087400        5.2122905335       30.1352001851
  H        12.4997785648        6.5827350118       29.1012257552
  C        10.3669655656        6.0249758945       27.6576428703
  H        11.4214586810        4.3128366714       28.3627801713
  H        10.0184539375        4.8103020887       29.3014617374
  C         9.7183681410        5.3137644640       26.5060453473
  H        11.1325077935        6.6508791211       27.3028359254
  H         9.6587646177        6.7051490612       28.1716860849
  C         8.5264919256        6.0466261252       25.8727395927
  H        10.4066583092        5.1408259014       25.6569804765
  H         9.3567700599        4.3203186432       26.8989851895
  C         7.4367928551        5.0946516254       25.2954630097
  H         8.0161658744        6.6909660538       26.5902661244
  H         8.8922932065        6.7249409613       25.0812251336
  C         7.1998118696        3.8222949201       26.0858947229
  C         7.9641596955        4.3350274243       24.1397317419
  C         6.1130788429        5.7812775568       24.9018785219
  C         7.5011021497        2.7139296980       25.3253379893
  C         6.7794934257        3.5281630961       27.3391049514
  C         7.9636914147        3.0227585306       24.1287227157
  C         8.4440840554        5.0451693649       23.0118235828
  H         5.6236057295        5.1661081298       24.1785925180
  H         6.4479403063        6.6857084687       24.4309419057
  C         5.0338491687        6.0430288327       25.8978369192
  S         7.0748746219        1.1992722475       26.0582151110
  C         6.5137453122        2.1686567233       27.4896216696
  H         6.6835562997        4.3511521104       28.0289367537
  C         8.3157200862        2.3922440041       22.9634985050
  H         8.4292466611        6.1142921509       23.0686455220
  C         8.7256195190        4.4067253082       21.8273044035
  H         4.8505392606        5.1699844057       26.4970281171
  H         5.4635234740        6.9540531009       26.4380389597
  C         3.6659460632        6.4454707962       25.2018715995
  C         6.1129504745        1.4987355655       28.7995285507
  C         8.6194067796        3.0677617081       21.7413404689
  H         8.3768142967        1.2680521438       22.9110399373
  C         9.1057687785        4.7506001275       20.5869925333
  H         3.4260994783        6.0373320245       24.1962827142
  H         3.9262269296        7.5269954468       24.9933716947
  C         2.4939663245        6.4788667717       26.1479013267
  C         6.2119173341        0.0846427810       29.0729158401
  C         5.5204814991        2.3651610997       29.8364157692
  C         8.9281210192        2.3684125316       20.4120386396
  C         9.2154002795        3.6781365162       19.7177239388
  S         9.4834068555        6.2465728797       19.8401319800
  H         1.7043739552        7.1922628967       25.7631538044
  H         2.7391902031        6.8984865894       27.1560138652
  C         2.0942284605        5.0309164137       26.4393463090
  N         6.6585671259       -0.9525816120       28.2317619211
  C         5.8837060422       -0.3837924992       30.3295034406
  C         5.3167660649        1.8474407724       31.1036635604
  H         5.3597087567        3.4386441063       29.6186205409
  C         7.7611431378        1.5095753571       19.8120181303
  C        10.2047153465        1.4709296648       20.7471500302
  C         9.6273088982        4.1345233471       18.4262729836
  C         9.6997673808        5.4973974707       18.3523200181
  H         1.2908150387        4.6395114125       25.7572852113
  H         2.8546268487        4.2985659579       26.2785120263
  C         1.5940242933        4.9772516383       27.8913296614
  S         6.4304505882       -2.4063147479       28.9903003100
  N         5.9081368492       -1.7975818719       30.4131597512
  C         5.4977298117        0.4603479666       31.3456804519
  H         4.8271570441        2.5219355005       31.7522528820
  H         7.3618458910        0.7942001864       20.5033991808
  H         8.1567221177        0.8912048074       19.0181050197
  C         6.6003780537        2.4199478037       19.2925767106
  H        10.4819663087        0.7800445084       19.9692564867
  H        10.0649839111        0.8957100927       21.6790301390
  C        11.4650428298        2.3150479631       20.7534585868
  H         9.7639487896        3.3828404665       17.7086844714
  C        10.1333912672        6.2050481197       17.1238172970
  H         0.9082217899        4.0653070354       27.8333139181
  H         0.9675877961        5.8314148258       28.1424724494
  C         2.7075549238        4.7683954598       28.9424338452
  C         5.2836208351       -0.1644748077       32.5782979261
  H         6.7954489726        2.6233291415       18.2320550124
  H         6.6196879830        3.3395051826       19.8798426152
  C         5.1876092664        1.9082362816       19.3619771602
  H        11.2339073086        3.1182111315       21.5401085476
  H        11.5813656791        2.9028227049       19.8627052938
  C        12.7419225631        1.5104585469       21.0441060822
  C        10.3235364861        7.6112179573       17.0617348039
  C        10.3112497775        5.4083212345       15.8428782715
  H         3.0973099824        3.7198357694       28.7765343653
  H         3.5369486866        5.4784236538       28.7764472330
  C         2.1472728185        4.7035375299       30.3963630712
  H         5.3935731993       -1.2197732560       32.6095829699
  C         4.9405587551        0.2783288629       33.8171206519
  H         4.5411487084        2.8065778940       19.4511922440
  H         5.0602499219        1.2985393154       20.2378090726
  C         4.7351328415        1.1737615053       18.0838240476
  H        12.4488643969        0.7956461272       21.8555381689
  H        13.0452367432        0.9771279695       20.1176270576
  C        13.8848086606        2.4508853496       21.5037906576
  N        10.0742927898        8.5887430119       18.1089370380
  C        10.6482872466        8.2680618321       15.8975892928
  C        10.5917737223        6.1359006871       14.6901407241
  H        10.1672655095        4.3209246167       15.7815337954
  H         1.4001705410        3.8539246121       30.5168219141
  H         2.8569753670        4.8638362351       31.1608193032
  H         1.4482796671        5.5211672042       30.4635146512
  S         4.6463570727        1.8270252711       34.3422859862
  C         4.9843139737       -0.7939722207       34.8416367775
  H         5.0456125789        1.8319757148       17.2202425989
  H         5.3521507786        0.2745303004       17.8914540109
  C         3.2544640495        0.8355778058       18.1397231862
  H        13.4911960563        3.4177020112       21.8609282997
  H        14.5758237196        2.6019527133       20.6521022380
  C        14.6665595821        1.7076000876       22.6026051879
  S        10.2710885542       10.0872575249       17.4726133642
  N        10.7030354635        9.6293278564       15.9985539496
  C        10.8307958351        7.5653616658       14.6818710002
  H        10.4185393463        5.6467942402       13.7070941074
  C         4.4826854246        1.1320670008       35.9710052316
  N         4.6131055713       -0.2268827864       36.0285507158
  O         5.1338156772       -2.0141364011       34.7466039715
  H         2.7782586663        0.8865823706       17.1815545374
  H         2.7623153631        1.6610785912       18.6789871208
  C         2.8720399354       -0.4948753035       18.8114808353
  H        14.1682098724        1.2020966206       23.3657380880
  H        15.1117577784        0.9139435108       21.9753087489
  C        15.6677723270        2.6101180855       23.3949039746
  C        11.0857797458        8.4206583687       13.5810265755
  S         3.9958949359        1.8947302185       37.4271528929
  C         4.6072731918       -0.9832903531       37.2851348389
  H         3.6532630621       -0.7445904561       19.4846160605
  H         1.8752587841       -0.2728504383       19.2466029091
  C         2.7858410115       -1.5428897384       17.6715936993
  H        15.1946888773        3.1090425958       24.2725389133
  H        16.0294381983        3.3210467612       22.6580114746
  C        16.9097837075        1.9263693968       23.9308996521
  H        10.9640719676        9.5131674340       13.7158431282
  C        11.5135581208        8.1226264719       12.3198400855
  H         3.9103730439       -0.6822125985       38.0379002907
  H         4.2445520598       -2.0155919607       37.0104007406
  C         5.9341852111       -1.0223513757       37.9145595813
  H         2.7140515456       -2.5819433562       18.0910709031
  H         3.7971107845       -1.5649234432       17.1092283696
  C         1.8329691490       -1.3930964642       16.5233826789
  H        17.2811825553        2.3569999592       24.8533570906
  H        16.6890399698        0.9077727380       24.2259071893
  C        18.0366582922        2.1431173790       22.9003229667
  S        12.1887972294        6.6078659239       11.7606640130
  C        11.5562934801        9.1824627186       11.2982142647
  H         5.9102505345       -1.5848606740       38.8437835230
  H         6.6071053515       -1.5604063523       37.2341683068
  H         6.3785431492       -0.0754337111       38.1797238838
  H         1.0635843437       -0.7077097536       16.7759747636
  H         1.3035580823       -2.2809926375       16.2258768548
  H         2.3127153403       -1.1126098155       15.5423234858
  H        18.3356764954        3.1646480572       22.9617819176
  H        17.8003186964        1.9746362410       21.8744545572
  H        18.8386915687        1.4598818060       23.2098096963
  C        12.5271635866        7.4069911936       10.2032988964
  N        12.2662896823        8.7250093685       10.2740289644
  O        11.1687372718       10.3191480740       11.5367182137
  S        13.5835325905        6.7780973879        8.9231918612
  C        12.5813155401        9.6304449400        9.1697110463
  H        12.6615666492       10.6223576862        9.6088761429
  H        13.6068245606        9.5491456790        8.8503107314
  C        11.6077200993        9.4972457791        7.9580004577
  H        11.9947766152        8.7434080940        7.4241041910
  H        10.6150414010        9.3494342111        8.3411693788
  H        11.6234089265       10.4194496941        7.3682746144
  H        22.3779916913        8.7939123424        3.7464673202
  C        22.6231960341        9.9202158393        3.7970900899
  H        23.3774731514        9.9741879052        3.0646887346
  C        23.3354378217       10.3091249870        5.0866380597
  C        21.3229495398       10.6938347692        3.4306119616
  C        22.5170224872       10.5736017728        6.2984153817
  H        23.9152943735        9.4573148724        5.3722697893
  H        24.0141750477       11.1728336276        4.8938271724
  H        21.5015610070       11.7978123226        3.5989009597
  H        20.5085346137       10.5748431710        4.1333534915
  H        20.9570875549       10.5144370912        2.5107720853
  C        21.5211090165        9.4956827840        6.7220212697
  H        23.1813340204       10.6916294081        7.0729794587
  H        22.0641582931       11.6031985459        6.1286329671
  C        20.6932430079        9.9225675323        7.9334049457
  H        22.1984314938        8.6373282872        6.9769105049
  H        20.8552045040        9.1749291652        5.9356252309
  C        19.4978816426       10.8395218422        7.4727066227
  H        21.2605854837       10.5758565773        8.5782825303
  H        20.3205147104        9.0399317707        8.5033118846
  C        18.3181291008       10.0189505036        6.8349699814
  H        19.1518511999       11.2035434029        8.4240735760
  H        19.9143294062       11.6774864474        6.9637724652
  C        16.9641284875       10.7560502950        6.6536275345
  H        18.1371838585        9.2841640632        7.5288360286
  H        18.5914810694        9.6749632311        5.8206640621
  C        17.2863036307       12.1020451213        6.0583938368
  C        16.5120196445       11.3639597320        7.9450598271
  C        15.7707475274       10.0755786007        5.8464182958
  C        17.0895098070       13.1759965758        6.9339132059
  C        17.7419915298       12.4681302462        4.7461553861
  C        16.6611880665       12.7139752543        8.1581962715
  C        16.0852516249       10.6733553379        9.0514167906
  H        16.1793321345        9.6636827916        4.8763491213
  H        15.4207445933        9.1714191295        6.3346033371
  C        14.5514192956       11.0046317078        5.4927332967
  S        17.3542725395       14.6934562745        6.1080454660
  C        17.9040231431       13.8082623748        4.7141762685
  H        17.9531411017       11.7080675467        4.0584545941
  C        16.3324989960       13.3070605082        9.3240423298
  H        16.1186681018        9.5834286363        8.9347967805
  C        15.7087003345       11.3132578208       10.1899142053
  H        14.8811874680       11.9147963345        4.9404520494
  H        14.1474482869       11.3701721365        6.4106247629
  C        13.4661676917       10.3545365085        4.7028773924
  C        18.3713778126       14.5174733528        3.4767854302
  C        15.8220540985       12.6343955338       10.4156657571
  H        16.4807653522       14.3850077934        9.4032857891
  C        15.2942757798       10.8930170835       11.4296630474
  H        12.6461769060       11.0085867082        4.7004753640
  H        12.9961219899        9.4918209271        5.1557697693
  C        13.9385618233        9.9984689031        3.2782537103
  C        18.3680858065       15.9646893818        3.3002609071
  C        19.0028033262       13.7015493665        2.3888892490
  C        15.4603443982       13.2724103108       11.6873068407
  C        15.2112470303       11.9294101941       12.3674485929
  S        15.0687025042        9.3622514840       12.2096931546
  H        14.4978499917        9.1793044081        3.3807085000
  H        14.5019421817       10.8560469644        2.9381504002
  C        12.7661475187        9.6888741994        2.2996585824
  N        17.9642180667       16.9081137281        4.3203150560
  C        18.7121553107       16.5431504157        2.1234484460
  C        19.2426729867       14.2824808705        1.1821817697
  H        19.0944305198       12.5965838482        2.5545273200
  C        14.2438659723       14.1699841768       11.4659371966
  C        16.6622632973       14.0126416176       12.3747983870
  C        14.9243386772       11.5217578160       13.6863461202
  C        14.6185470722       10.1897481439       13.7597858119
  H        12.2346069502        8.8849037399        2.8251484059
  H        12.1321589667       10.5880527161        2.2140338009
  C        13.3093188153        9.3617488897        0.8753503304
  S        18.0549807964       18.3626468356        3.5938240756
  N        18.6339174701       17.9160199790        2.1618498599
  C        19.1085042113       15.7613420373        1.0266832344
  H        19.5964741406       13.6162087501        0.3997391367
  H        14.5248617295       14.8558379625       10.6206652010
  H        14.0866327079       14.6694876964       12.4046949335
  C        12.9643287043       13.4424550252       11.0087057201
  H        17.0204088631       14.8472130408       11.7496742770
  H        16.3562002707       14.3896191441       13.3457656569
  C        17.9125008096       13.2239838861       12.7868584314
  H        14.7461250011       12.2535264656       14.5010554151
  C        14.1929760389        9.4811694614       14.9815580735
  H        12.4622888905        8.9025998795        0.3797198865
  H        14.1153831223        8.6053180982        0.9332972058
  C        13.7559759612       10.5680738934        0.0253525995
  C        19.2567301690       16.4604465855       -0.2417403109
  H        13.2845914874       12.9800081305       10.1033209313
  H        12.5325537257       12.7252389908       11.7302922334
  C        11.7763424935       14.3796919819       10.8173784136
  H        18.3289331594       12.7622927110       11.8929218637
  H        17.6309045978       12.4776983758       13.5463614107
  C        18.9880771750       14.1609915687       13.2550462695
  C        14.0948125786        8.0673857408       15.1750655334
  C        14.0642135196       10.2002919760       16.1950990422
  H        13.5519022465       11.5082427470        0.4881497811
  H        14.8215728258       10.6353642847       -0.1337374680
  C        13.1310411105       10.6423224801       -1.3737039793
  H        18.8408814614       17.4200129269       -0.1975086140
  C        19.6796227254       16.0388084877       -1.5042775224
  H        12.0397651843       15.1810403293       10.1633060719
  H        11.4584705047       14.8035302255       11.8047411201
  C        10.4808871305       13.6597183152       10.3161751559
  H        19.6661796022       14.3221837664       12.3623340538
  H        18.6302539926       15.0941756893       13.6233268418
  C        19.7599491904       13.5878527723       14.4534511447
  N        14.2960678272        7.1336599990       14.1576872190
  C        13.8147372590        7.5085020813       16.4021204572
  C        13.5886357037        9.6240785699       17.3662765297
  H        14.0586728181       11.2797591356       16.1968265402
  H        13.3924947974       11.5773144983       -1.9001575741
  H        12.0864789665       10.8894755392       -1.2087445960
  H        13.2669079439        9.8729598047       -2.1194008226
  S        20.2703763734       14.5239838547       -1.9958415106
  C        19.5962075462       17.0830809165       -2.6288133862
  H        10.8439473965       12.9898306923        9.5791666271
  H        10.0577969957       13.0975856837       11.1684684450
  C         9.3683038225       14.5100429421        9.8165100395
  H        20.3628791016       12.8059623140       14.1238160949
  H        19.1508916810       13.0790515630       15.1983946625
  C        20.6017349274       14.8176003356       15.0391003945
  S        14.1278828510        5.6538236924       14.8379123450
  N        13.6635000876        6.1165555618       16.3311665609
  C        13.5411657715        8.1945364788       17.5765043089
  H        13.5535722805       10.2595517136       18.3024494694
  C        20.3965665645       15.2599855806       -3.5544988991
  N        20.0582477482       16.5426174688       -3.7463749514
  O        19.1654505666       18.1958290304       -2.4415870046
  H         8.8929669638       15.0966723018       10.5696755069
  H         9.7513507159       15.0966343095        8.9874852724
  C         8.3442124973       13.4922634577        9.2736214583
  H        19.9259247548       15.6298840544       15.2094061960
  H        21.1003263498       14.6019876161       15.9763054796
  C        21.6811060571       15.2690906860       14.0605253037
  C        13.1624471268        7.4833313293       18.7775498031
  S        20.9246182074       14.3112378418       -4.9775435156
  C        20.1349430314       17.2686301635       -5.0544303855
  H         8.7679296003       12.9989393475        8.3368256789
  H         8.2235702699       12.6462491486        9.8742121614
  C         7.0601184237       14.1855054203        8.8352949409
  H        21.2643923380       15.7403768793       13.1406370449
  H        22.2541395852       14.3502466660       13.7507456687
  C        22.6434637493       16.2718628732       14.5664184991
  H        13.3830662695        6.4186893415       18.7539406642
  C        12.7376587876        7.8428710014       20.0703874472
  H        21.0115273470       16.8837370298       -5.6106128579
  H        20.3422125156       18.3244644199       -4.9920859501
  C        18.8346310569       17.0298840442       -5.7368546122
  H         6.6497198800       13.5426604037        7.9956265495
  H         7.0955949571       15.2131349286        8.4773986618
  C         6.0665166311       14.1115714334        9.9348067526
  H        23.4179501118       15.9262977189       15.2421385321
  H        23.1509592314       16.7479953836       13.7287605603
  C        21.9358143490       17.4343818583       15.3439769129
  S        12.2688698947        9.4314038781       20.6377747233
  C        12.7496011176        6.7404412215       21.0387264336
  H        18.9045201726       16.6494329217       -6.6867620510
  H        18.2572045975       17.9500035071       -5.7178077647
  H        18.1426341479       16.3323179817       -5.2220821258
  H         5.9223853788       13.1342763907       10.2951267434
  H         6.2345991043       14.7233690931       10.8005225985
  H         5.0769436052       14.4077012278        9.5548492835
  H        21.5793659394       17.1175097059       16.3177762562
  H        22.6097208222       18.2135768285       15.6317957781
  H        21.1734057013       17.7967522419       14.6486484467
  C        11.9319948613        8.6188931691       22.1721399849
  N        12.1661776901        7.2552603347       22.1421163162
  O        12.9335511212        5.5637479393       20.7718096561
  S        11.1820731664        9.4094315178       23.6230684065
  C        11.9193610586        6.3938007685       23.2701253097
  H        11.4535291860        5.4177545013       23.0477651460
  H        11.1020485516        6.8984393936       23.7659438556
  C        13.1305994588        6.2122080933       24.2137526508
  H        13.8064239240        7.0537533982       24.1556389931
  H        13.8215979738        5.3514146832       24.0958276932
  H        12.7279133220        6.1502040181       25.2675378888
