352
 i =    98300, time =    98300.000, E =        25.0667726794
  H        11.0885792864        7.7453114637       31.0359197862
  C        11.8451027787        7.1681324980       31.4950956622
  H        12.7078424472        7.8652752636       31.7926002561
  C        12.2621784020        6.1628712104       30.3653306175
  C        11.1798758597        6.4288523565       32.6388470569
  C        11.1626875007        5.3058450861       29.7113978215
  H        12.9113675202        6.7271747369       29.6836938245
  H        12.9471004412        5.3759054996       30.7639125199
  H        10.1278449323        6.1118715991       32.4400048063
  H        11.8899401878        5.7333955459       32.9404665853
  H        11.0516408471        7.0615121337       33.5017542048
  C        10.4067165483        6.0383082961       28.5890688497
  H        10.4780337137        4.9374361972       30.4510165733
  H        11.6776390799        4.4707894737       29.3289907176
  C        11.0839395384        5.7477132560       27.2890976644
  H         9.3434260781        5.7588228949       28.4115478961
  H        10.5020052317        7.1456018101       28.8655582312
  C        10.1570678932        5.0891235655       26.3419021078
  H        12.0628927366        5.1671849538       27.4643600847
  H        11.3216392653        6.7291536467       26.9052764942
  C         8.9278250791        5.9260594262       25.9348046382
  H        10.8131129442        4.8600618969       25.5175046122
  H         9.7814347743        4.1427535428       26.7790037689
  C         7.7569995050        5.1250483340       25.1872712424
  H         8.4433222571        6.4821515087       26.7576676903
  H         9.3237570772        6.7622096020       25.3445582389
  C         7.3906896290        3.8122272925       25.8988056113
  C         8.2498519492        4.3537531883       24.0200253656
  C         6.4641128334        5.8846629595       24.7805667927
  C         7.5296828868        2.6481283228       25.1232167670
  C         6.9076485731        3.4964286963       27.2040959662
  C         8.1376450419        2.9744428214       23.9405719486
  C         8.6880866954        5.0266917874       22.8837339153
  H         5.8667223999        5.3563377131       24.1468602223
  H         6.7411189620        6.7226377522       24.2282115255
  C         5.6620145287        6.4220959846       25.9092284833
  S         7.0479666766        1.1283791117       25.9661261645
  C         6.6594317675        2.1102285661       27.3825369250
  H         6.8829027353        4.3194637664       27.9668092159
  C         8.5395678834        2.3218545351       22.8488569535
  H         8.6999215155        6.0626537243       22.9390889697
  C         8.9413428465        4.3749784229       21.7429480636
  H         5.8950915307        5.8097328924       26.7439684608
  H         6.0257983654        7.4533668299       26.0352255639
  C         4.1207919315        6.3283841327       25.6653832358
  C         6.1834175566        1.5108921897       28.7172954034
  C         8.9399546844        3.0192185023       21.6523098905
  H         8.5216280493        1.2815415726       22.7401289673
  C         9.3184645015        4.7591105981       20.4746500387
  H         3.8651141862        5.3175669360       25.3346609397
  H         3.7051450372        7.0298228209       24.9247329849
  C         3.3397205772        6.6025614267       26.8934890024
  C         6.0982134278        0.1192863625       29.0382703388
  C         5.9182576388        2.3941784175       29.8567336203
  C         9.2939579657        2.3397083634       20.3424121386
  C         9.5934106407        3.6844257078       19.6481562321
  S         9.5760562535        6.2642516750       19.7172752780
  H         2.4322991257        7.1652728440       26.7937664622
  H         3.8373125185        7.3186251755       27.5249322954
  C         3.0887989155        5.2768829935       27.5750421187
  N         6.3825595042       -0.9792901859       28.1408872491
  C         5.8331339779       -0.3787071382       30.3318841159
  C         5.6461961760        1.9056873035       31.1454714114
  H         6.0741750720        3.4433256926       29.7525832218
  C         8.1460393825        1.4669949299       19.7538408805
  C        10.6182782130        1.5376292360       20.3834004083
  C         9.9936678586        4.1442690957       18.3709424031
  C        10.0152870192        5.5187911854       18.2780934057
  H         2.7283112612        4.5344100473       26.8410963603
  H         3.9587910317        4.8099251407       28.0813925945
  C         2.0095757449        5.4293005594       28.7012524326
  S         6.2562171186       -2.4054471105       28.9550937324
  N         5.8943049662       -1.7856081133       30.4190635140
  C         5.6394321119        0.4558608041       31.4532079687
  H         5.5168181563        2.6565686854       31.8512299438
  H         7.8273254553        0.7519771293       20.4671219888
  H         8.3727824371        0.8445660584       18.8678425873
  C         6.9017527663        2.3151706482       19.4967515630
  H        10.9895979324        1.2328332447       19.3822372863
  H        10.4183488143        0.5669068631       20.9056286528
  C        11.8060044172        2.2136723043       21.1820173765
  H        10.1896740715        3.4181958005       17.5402370076
  C        10.2736227762        6.3010158333       17.0481878382
  H         1.5219039598        4.5059246762       28.9095074906
  H         1.1846348975        6.0031575198       28.3070537639
  C         2.5608464375        6.1332850901       29.9610454236
  C         5.4519090303       -0.1788852958       32.7512165637
  H         7.0812638341        3.0168741119       18.7299351302
  H         6.5349085402        2.8491033905       20.2818108291
  C         5.8003675541        1.3870030705       18.9760749583
  H        11.5961294995        2.6130981099       22.1316720279
  H        12.1916833037        3.1634357036       20.7087258002
  C        13.0577242623        1.3755636567       21.3625874688
  C        10.3061137517        7.7648398707       17.0685222628
  C        10.7423580916        5.5944936718       15.8293856107
  H         3.1820963196        6.9497681616       29.6585676592
  H         1.7475768053        6.5299512482       30.5703544228
  C         3.4871981387        5.3620302967       30.8831032473
  H         5.7330624742       -1.1872830072       32.7240849453
  C         5.1466933561        0.3404768785       33.9903214824
  H         5.4737077343        0.8011332346       19.9266660277
  H         6.1612338398        0.6930816004       18.2009416835
  C         4.6514770279        2.0632311680       18.3506799963
  H        12.8516072538        0.4927623800       21.8920737191
  H        13.4400371293        1.0596463557       20.4415030780
  C        14.1123583113        2.2155047229       22.1430225622
  N        10.1270304939        8.6322545250       18.1756949629
  C        10.6598140194        8.4623929828       15.8941394409
  C        11.0616161438        6.3164128397       14.7194384384
  H        10.5391676599        4.4979944948       15.7967581087
  H         3.3582912483        5.6515789373       31.9701490957
  H         3.6393390971        4.2651357658       30.8107585831
  H         4.5391403299        5.7292312226       30.6951244668
  S         4.6565059568        1.9183919682       34.2519560571
  C         5.1219250460       -0.5839209473       35.0589260300
  H         4.4529872037        2.7777330206       19.1185859067
  H         4.9246700944        2.5432240968       17.4206662235
  C         3.3492843437        1.2783925163       18.2396703975
  H        13.5521837272        2.6297447947       23.0337452628
  H        14.4727821586        3.0039053644       21.5668645800
  C        15.2115158329        1.3473840263       22.6865818848
  S        10.2347527329       10.1775862486       17.6875773452
  N        10.6274535703        9.8991315323       16.1042949886
  C        11.0263244778        7.8456873601       14.6824710436
  H        11.2588582964        5.7872033994       13.8111531338
  C         4.5431560674        1.3722347324       35.8903924765
  N         4.7470435037        0.0890107652       36.1216222014
  O         5.2316142115       -1.7763282918       34.9364733709
  H         2.9139561122        1.5013026975       17.2420781515
  H         2.6397833917        1.6585135400       18.9303879201
  C         3.5132213390       -0.3119934758       18.3211202609
  H        14.7395786437        0.5947159904       23.3358517990
  H        15.7853019472        1.0334669782       21.8396646309
  C        16.1292584733        2.2429345556       23.5489224615
  C        11.2375350262        8.5908206802       13.5202634462
  S         4.0185121449        2.4361274890       37.0863192153
  C         4.5190332075       -0.5387842719       37.4547419835
  H         4.3477191082       -0.6154415210       17.6561648945
  H         3.9348755617       -0.4581888769       19.3094777706
  C         2.1945335301       -1.1475817585       18.2506658436
  H        15.6720551733        2.5900384663       24.5192810672
  H        16.4044146015        3.1761542829       23.0860969412
  C        17.4516824161        1.6591757568       23.9223590239
  H        11.0652190761        9.6521217918       13.7481933429
  C        11.8076903640        8.3689669898       12.2753272844
  H         3.8707419204        0.0287252330       38.0720524720
  H         4.0633857974       -1.5266367517       37.3700732164
  C         5.7858242471       -0.9322679622       38.1225900545
  H         1.3349425281       -0.6619807711       18.7046389337
  H         2.2542001014       -2.0940288444       18.6835043792
  C         1.8142776200       -1.4581725711       16.8591442952
  H        17.8679903886        2.2498846327       24.7631810372
  H        17.4131442129        0.5696052618       24.0934472746
  C        18.5560934601        1.9081717545       22.8189378152
  S        12.5296783956        6.8989437165       11.7002669783
  C        11.7638455289        9.4740126114       11.3128018486
  H         5.9171719626       -0.5245141542       39.1005191323
  H         5.9022036615       -2.0208266884       38.2153389151
  H         6.7008438327       -0.4705083430       37.6236196982
  H         2.2876207601       -2.4278415579       16.5782916643
  H         1.9474530142       -0.7103512462       16.2209256370
  H         0.7636148806       -1.6091236900       16.8407863414
  H        19.4710704148        1.4547071009       23.2293465400
  H        18.7094483360        2.9469832471       22.5544903046
  H        18.4055116501        1.4098332717       21.8438069388
  C        12.4781688458        7.6934457667       10.2004792478
  N        12.3210688122        8.9928625872       10.1862807687
  O        11.4801662718       10.6139280637       11.5388392293
  S        13.1415603208        7.0622346002        8.6778416951
  C        12.2777471295        9.8902913836        9.0043913764
  H        12.6322799245       10.8980676349        9.2520422716
  H        12.9840532854        9.6538067601        8.1400472151
  C        10.9604498538        9.8071134699        8.3649710042
  H        10.3721423904       10.5790671730        8.8535494842
  H        10.9285456232       10.0193153701        7.3166714541
  H        10.5355110426        8.7620261167        8.5267332020
  H        21.3429338919       10.8284225912        3.1379074153
  C        22.1496323463       10.1519557234        3.2420001217
  H        21.6504402150        9.2208829087        3.4466579248
  C        22.8237712275       10.5744618493        4.5366884928
  C        22.9942652586       10.0385475055        2.0249520634
  C        21.8953448076       10.8869817239        5.7687913100
  H        23.6228981073        9.9542439724        4.9050537285
  H        23.2667991541       11.4780681754        4.2564205408
  H        22.2905206668       10.0060928905        1.2363988056
  H        23.6355551156        9.2238195376        1.9247157698
  H        23.5237935916       11.0143140135        2.0041016739
  C        21.3752944517        9.5705485842        6.3766193600
  H        22.3160257083       11.5033458504        6.5276503788
  H        21.1014412004       11.4937405968        5.3618278621
  C        20.7169134043        9.6118256687        7.7682734266
  H        22.2314177170        8.8775682735        6.6292300481
  H        20.7207738010        9.0602371245        5.6851742736
  C        19.4920816271       10.6017383364        7.7930525020
  H        21.4722929820        9.9771848973        8.5023784518
  H        20.5072439105        8.5990562826        8.1197395336
  C        18.2646403592        9.9318145854        7.1614772491
  H        19.1485704213       10.7986735894        8.8184229162
  H        19.6593320902       11.5621574709        7.2356405472
  C        17.0224439216       10.8441447006        7.0528053465
  H        18.0573354921        9.1386065410        7.9099626762
  H        18.5170235610        9.4189652489        6.2855970594
  C        17.3560181709       12.1983422146        6.3935933375
  C        16.5329048602       11.5304449248        8.2547877589
  C        15.8871805072       10.1581350090        6.1527988378
  C        17.0710182236       13.2573239208        7.1703722045
  C        17.8067391973       12.5173797191        5.1245468496
  C        16.5701336671       12.8470434751        8.3986097922
  C        16.0715115069       10.8058425801        9.3651361450
  H        16.3326504852        9.8201160622        5.2513307727
  H        15.6146535419        9.2687974033        6.7266442773
  C        14.6520611330       11.0119575004        5.9359880527
  S        17.4709180685       14.7708765967        6.3417078945
  C        17.9134408219       13.8120845771        4.9329340128
  H        18.0216472797       11.7174521749        4.4142566180
  C        16.1111882039       13.3843563918        9.5089331233
  H        15.8505496636        9.7795417432        9.0650978493
  C        15.6757420881       11.3555511747       10.5676344275
  H        14.7864512312       12.0914532850        5.7877688648
  H        14.0406469317       11.1464965902        6.8455240717
  C        13.7005748172       10.4060891439        4.8080169503
  C        18.5085062543       14.4863154362        3.6598164676
  C        15.6447013238       12.6857414545       10.6915500956
  H        16.0773623235       14.4787067633        9.5560037676
  C        15.2708804858       10.9887216645       11.8130305234
  H        12.7795635797       10.9635742310        4.9060455472
  H        13.5384466217        9.3396116315        5.0940738044
  C        14.3527775870       10.6134644472        3.4172749304
  C        18.4635128887       15.8541954718        3.3436930881
  C        18.9265176618       13.5784891187        2.5144325924
  C        15.3049628318       13.3794966574       11.9739173380
  C        15.1245985905       12.0410486358       12.6657194663
  S        14.9222663397        9.5608037889       12.6190288963
  H        15.1929897561        9.9818785514        3.2667977328
  H        14.5323206575       11.6762120906        3.2847647830
  C        13.3385897189       10.1010090058        2.3871135659
  N        17.9301015248       16.8799741989        4.1835179509
  C        18.8490391121       16.3562909645        2.0839307186
  C        19.2183007223       14.1034796878        1.2664918869
  H        18.9409319000       12.5093033365        2.6731531705
  C        14.0939861698       14.2671553166       11.8339760688
  C        16.4477547898       14.0911145423       12.5777941167
  C        14.8118042144       11.7180749138       13.9782776928
  C        14.5843464199       10.4035199001       14.0826233312
  H        13.2900236186        8.9856716385        2.4405542190
  H        12.3857667424       10.4998678313        2.6830401004
  C        13.6332406683       10.5068500956        0.8860696258
  S        18.1641235925       18.3190155968        3.3949167268
  N        18.7700304017       17.7617261189        1.9942308784
  C        19.2143069581       15.5439222452        0.9801305255
  H        19.5811238909       13.4209557782        0.5765200536
  H        14.3916887746       15.2767760971       11.4828174785
  H        13.5721557607       14.3780608193       12.8606354840
  C        13.0874010461       13.6481846456       10.8446099563
  H        16.6949297314       14.9859102721       12.0245107115
  H        16.0761773821       14.5132256303       13.5025288862
  C        17.7811735741       13.2970691067       12.7432226677
  H        14.6964706760       12.5344178821       14.7266773418
  C        14.4532563142        9.6408285629       15.3343732984
  H        14.5077222488        9.9453382358        0.4872483653
  H        13.8116268900       11.5715995605        0.7485760387
  C        12.5207912057       10.0217377002       -0.0569416665
  C        19.3218490803       16.1317567281       -0.2851571430
  H        13.5009093197       13.8334052780        9.8379390250
  H        13.0100298001       12.6477008126       11.1419520921
  C        11.7026371184       14.2998986875       10.9364383227
  H        18.1427145643       12.9615935826       11.7682819742
  H        17.5915198381       12.4211493689       13.3590325793
  C        18.7416425812       14.1887554328       13.4839185883
  C        14.4331187739        8.2039407429       15.3827124386
  C        14.3618038440       10.4506467539       16.5635543397
  H        12.3860402216        8.8836754311        0.0813049578
  H        11.6746642387       10.4731054554        0.3146284876
  C        12.7211473127       10.3955633609       -1.5260830011
  H        19.0471651620       17.1665274878       -0.2700168171
  C        19.7188081499       15.6725389836       -1.5300172318
  H        11.8175142342       15.3681773330       11.0142692692
  H        11.2606788147       14.0269369809       11.9222412209
  C        10.8739478009       13.8295690229        9.7864021720
  H        18.9288600481       15.0412732519       12.8188089547
  H        18.1908597082       14.5789997995       14.3564471197
  C        19.9840125535       13.5075065494       14.0007747061
  N        14.6077803905        7.2340571990       14.3342885309
  C        14.1417337048        7.5535865146       16.5676344513
  C        14.1374303080        9.7441978192       17.7629860297
  H        14.4312974111       11.5171180509       16.6616025328
  H        12.7010584409       11.4363448535       -1.4539922928
  H        11.9520285512        9.9370522956       -2.1531981195
  H        13.7197736349       10.1612882125       -1.8492467220
  S        20.0337836081       14.0778030610       -1.9312429636
  C        19.6732742841       16.6619507536       -2.6296606733
  H        10.5324856128       14.6779135953        9.1939611977
  H        11.5168208830       13.1849061456        9.1747033419
  C         9.6405701287       13.0975579726       10.2286573715
  H        20.5453358254       13.1098989003       13.1984018994
  H        19.7016383472       12.6573919356       14.6364533252
  C        21.0131526097       14.4535841344       14.6884475757
  S        14.4502223387        5.6689113411       14.8776274684
  N        14.0833529694        6.1128978608       16.4548195354
  C        13.8471281242        8.2849291242       17.7233549052
  H        14.1002830893       10.3487848621       18.6932962478
  C        20.2673935398       14.7746332922       -3.5966897753
  N        20.1953728494       16.1004972326       -3.7588364442
  O        19.3988526571       17.8467967270       -2.4601290548
  H         9.3729775643       12.5016369987        9.3171231758
  H         9.7636295398       12.3730831846       10.9898780844
  C         8.4287733563       13.9002106081       10.7068227765
  H        20.4313504853       15.0016154720       15.4739496645
  H        21.6616271651       13.9291306286       15.3229623030
  C        21.7099479001       15.3617682983       13.7337146114
  C        13.5128194175        7.5174200663       18.9119263521
  S        20.6843602506       13.8382135476       -5.0064556229
  C        20.2300714393       16.8748256738       -5.0381915892
  H         7.7572472613       13.3828637791       11.3208137358
  H         8.7274516905       14.7261760987       11.3557144664
  C         7.5655248841       14.4680217188        9.6710069746
  H        21.2691369949       15.1843316881       12.7230372433
  H        22.7483909044       15.1965850547       13.6163780188
  C        21.5007226411       16.9019033106       13.9600838209
  H        13.7811571696        6.4487411290       18.9476767980
  C        12.9195049819        7.7731407071       20.1207364858
  H        20.7921466505       16.3883352618       -5.8537065287
  H        20.5925738018       17.8475227893       -4.8738837356
  C        18.8100213792       16.9945736433       -5.6469921550
  H         8.1738056323       15.0892836041        9.1186530596
  H         6.8349060521       15.1995964220       10.1252598519
  C         6.8898884474       13.4662735996        8.8343615402
  H        21.3651553016       17.4103680108       12.9707647798
  H        20.6053225291       17.1338361043       14.4913627232
  C        22.6525120078       17.6295729056       14.6133978221
  S        12.2366155768        9.2378006735       20.6362283634
  C        12.8858667094        6.6698704949       21.0576702905
  H        18.5838121637       15.9724904882       -6.0482415891
  H        18.6909001558       17.7446697401       -6.3509804054
  H        18.1003661188       17.3870773639       -4.9104911427
  H         7.5543161057       13.1198381512        8.0497414535
  H         6.8493280464       12.5838053211        9.4598281803
  H         5.8924006148       13.7058753747        8.4313235638
  H        23.4331608431       16.8451996403       14.8275561590
  H        22.9915083990       18.4040760336       13.8962794302
  H        22.3979817100       18.1438075455       15.5102369120
  C        12.0905086010        8.3634178659       22.2021590715
  N        12.2592991352        7.0260718596       22.1767862023
  O        13.3582240318        5.5617118280       20.9194549480
  S        11.3032367982        9.1189590451       23.5711311005
  C        12.1042716056        6.1382704525       23.2854279211
  H        11.9267138244        5.1161107100       22.8872718703
  H        11.2681682246        6.4534231605       23.8833605134
  C        13.3656377692        6.1886764828       24.2259315811
  H        13.2901861686        6.9841321349       24.9706209437
  H        14.2441712750        6.3066293763       23.5757381450
  H        13.4900114604        5.2727302939       24.7873582932
