352
 i =    49400, time =    49400.000, E =        25.5270336766
  H         9.3917387691        6.2642728365       32.6358404440
  C        10.4352488416        6.4710696972       32.3664668361
  H        10.5125100934        7.5103977871       32.0385812728
  C        10.7844229768        5.5925352488       31.1632875234
  C        11.2226446947        6.0547404033       33.6351433674
  C        10.6886852053        6.2364350103       29.7676403202
  H        11.8240030835        5.2989586015       31.3118709504
  H        10.0021359563        4.8439567637       31.2285132279
  H        10.7956329210        6.6322500815       34.4735486964
  H        11.0220200806        5.0121661444       33.9542359089
  H        12.3270901752        6.0977019508       33.6327789783
  C        10.5996271406        5.1241919542       28.7289694545
  H        11.5355558639        6.8802027756       29.5690743058
  H         9.7634263342        6.8346358230       29.8009969623
  C        10.8600544061        5.6952723035       27.3919371063
  H        11.3003979825        4.3539986495       28.9051431961
  H         9.5660149946        4.7506347042       28.8267730252
  C         9.9646139247        5.1776241822       26.2284198003
  H        11.9020841474        5.3347725955       27.0324293082
  H        10.6728013294        6.7739263055       27.4192080722
  C         8.6738126426        5.9601575418       26.2284444924
  H        10.2669574246        5.2525337567       25.1814748545
  H         9.7097800639        4.1531541294       26.3854246681
  C         7.4756528807        5.2078871830       25.5085935764
  H         8.3418302971        6.2476272644       27.2133413662
  H         8.9172701712        6.9203628395       25.7754491423
  C         7.1964549004        3.8516229640       26.1555274671
  C         7.7471906502        4.5039466684       24.2453651524
  C         6.1981443861        6.0742278203       25.1968634940
  C         7.3856806580        2.7274051168       25.3992356224
  C         6.7074178296        3.4343811140       27.4258748051
  C         7.7397024613        3.1389694522       24.1117232722
  C         8.2267380909        5.1334526317       23.0829953885
  H         6.5363456766        6.8598063593       24.5991343748
  H         5.9387815285        6.4627800918       26.2062432869
  C         5.0015066353        5.3613572947       24.4710767876
  S         7.0880150505        1.1835331298       26.2232658827
  C         6.6082330806        2.0893243995       27.6669418059
  H         6.4643909001        4.2058643543       28.1784150901
  C         8.1229864421        2.5250249681       22.9999278444
  H         8.3948695327        6.1249730497       23.4103328808
  C         8.7130562959        4.5157303411       21.9447162474
  H         5.4462983908        5.0448402526       23.5306168164
  H         4.7578847041        4.4136712066       25.0421567490
  C         3.8281708326        6.3137761287       24.2157005088
  C         6.0758165148        1.4819405660       28.9202393195
  C         8.7052650885        3.1887693255       21.8510085921
  H         8.1118291530        1.4743453732       23.0666586793
  C         9.1476747938        4.8943157160       20.7004004961
  H         3.1467082217        5.8910664660       23.4795549131
  H         4.2301127136        7.1904692732       23.7441005993
  C         3.1223613860        6.6446287754       25.4693070927
  C         6.0182314440        0.0789840871       29.1917817662
  C         5.5512012750        2.3879284869       30.0037820515
  C         9.1875868877        2.4387027858       20.5914736197
  C         9.4105790897        3.7800024329       19.9246755558
  S         9.5237001323        6.4045803110       19.9589366747
  H         2.2254385087        7.2063984596       25.1971101657
  H         3.7206243653        7.2695909736       26.0718780040
  C         2.6499659096        5.4997512149       26.3979613965
  N         6.5638476167       -0.9387918366       28.2972851879
  C         5.5918278457       -0.4241676184       30.4044216054
  C         5.1622340710        1.8538619769       31.2107500922
  H         5.5006090243        3.4802556915       29.9180194667
  C         8.1673217053        1.4766451632       19.8343685438
  C        10.4977533927        1.5798980095       20.8044323928
  C         9.8135766085        4.2055857311       18.6370266502
  C         9.8453005119        5.5520246636       18.4995524935
  H         2.1581005379        4.7031572373       25.8471175536
  H         3.5075112296        5.0342994037       26.7927194254
  C         1.7037485578        5.9024420937       27.5359541973
  S         6.4729157978       -2.3577184142       29.0663483749
  N         5.8015926727       -1.8267015809       30.4954646719
  C         5.2073371672        0.3543934840       31.4140297033
  H         4.6691901003        2.5782895253       31.8938919929
  H         7.8247012773        0.6717662369       20.4067274718
  H         8.5353388831        0.9702482050       18.9103417787
  C         6.9181814339        2.3400708346       19.3546039719
  H        10.7902809705        1.0274317216       19.9386227821
  H        10.2094739766        0.9197382030       21.5688988752
  C        11.6785603811        2.4397395713       21.2345687807
  H         9.8806418524        3.5653602518       17.8652220345
  C        10.0319077641        6.3005282430       17.1877575387
  H         0.9506141717        5.1966335303       27.8335110402
  H         0.9803892512        6.6465583429       27.2521735304
  C         2.3834852338        6.5115398886       28.7996195765
  C         4.9643401952       -0.3384810747       32.6615313498
  H         7.1657275069        3.0298598769       18.4962903731
  H         6.6254040339        2.9029645838       20.1641086827
  C         5.8172335289        1.4813162827       18.7919102355
  H        11.4297586350        2.7990595609       22.2222181868
  H        11.7839224985        3.2329817856       20.5171395210
  C        12.9758198945        1.6237509596       21.3035302832
  C        10.0963723286        7.7273378775       17.0166181383
  C        10.2432235879        5.5152212508       15.8896874501
  H         3.3132890018        5.8996751379       28.9627830771
  H         2.6182037138        7.5544023119       28.6199182987
  C         1.6689987736        6.2364985352       30.0773609793
  H         4.9688605322       -1.4080701418       32.6161944042
  C         4.6808723788        0.1712848809       33.9309691185
  H         5.1932487554        1.0681302004       19.6494895469
  H         6.2109768399        0.6826734403       18.1774274640
  C         4.7776100227        2.2435124494       18.0051960857
  H        12.8466842152        0.9225218696       22.1407639317
  H        13.1818659719        0.9939422622       20.3955830086
  C        14.1464604550        2.5868964774       21.4525391591
  N         9.7875551074        8.6641195305       18.0145943964
  C        10.4259063683        8.4385564045       15.8349673926
  C        10.5815402378        6.1577488724       14.6702183489
  H        10.1390596839        4.4625679870       15.9431160822
  H         1.3111918372        5.2320412434       30.0332867901
  H         2.4484968111        6.3490078536       30.8408257101
  H         0.7889187219        6.9080882488       30.1094754140
  S         4.3966159617        1.7922308041       34.3286785552
  C         4.5767477171       -0.7905764953       35.0420466160
  H         4.4641190709        3.1872642226       18.5676898406
  H         5.3898602136        2.7533910911       17.2209288574
  C         3.5145494166        1.4662553068       17.6172525746
  H        13.8252875420        3.5902750878       21.1042971441
  H        14.8441715047        2.2634203139       20.6669506528
  C        14.6473742583        2.8322463168       22.8932971198
  S         9.8780174931       10.1331352839       17.4211040001
  N        10.4382908501        9.8002883108       15.9451454632
  C        10.6767101521        7.6810535058       14.6746096774
  H        10.9368160208        5.5526566484       13.8208341494
  C         4.2969873499        1.3009200263       35.9817034749
  N         4.2327576353       -0.0438754835       36.1104811745
  O         4.6855951861       -2.0229265657       34.8879086287
  H         2.9173820788        2.0686067573       16.9749746925
  H         2.9450617587        1.2747405618       18.5082323868
  C         3.7271469216        0.0641584148       16.9574828395
  H        15.0613372343        3.8373301593       22.9553175739
  H        13.7963985921        2.7656344572       23.5871908336
  C        15.7306027100        1.8150530003       23.2034561265
  C        10.9859160042        8.5144269599       13.5496902564
  S         3.6930332918        2.1848449891       37.3366541825
  C         4.0955473913       -0.7062802980       37.3943055361
  H         4.1797188303        0.2077811308       15.9878168275
  H         4.5042360921       -0.3912962159       17.5435733126
  C         2.5105928347       -0.8203368608       16.7479844096
  H        15.9632919675        1.3136521894       22.2891667526
  H        15.3726724871        1.0006273664       23.8498076223
  C        17.0388037270        2.3467065816       23.7801709559
  H        10.7665702078        9.5482048841       13.6040421726
  C        11.3566318331        8.1209100757       12.3026988100
  H         3.2502150637       -0.4498148853       37.9908881595
  H         3.8418493371       -1.7390781495       37.2406357624
  C         5.4449753549       -0.6955682998       38.0651980152
  H         2.4396529075       -1.1559689681       15.7407814039
  H         1.5967103748       -0.2958429184       16.9530218571
  C         2.7555338530       -2.0463638470       17.5765099748
  H        16.7906785798        3.0960783227       24.5046721870
  H        17.6218149588        1.4860546122       24.2359231577
  C        17.8147876759        2.8370875679       22.5393800641
  S        11.9154801166        6.5696463501       11.7142362657
  C        11.4792462807        9.2477319119       11.3153643639
  H         6.0123327771        0.2486066402       37.8557168200
  H         5.4303259670       -0.8207062356       39.2365307734
  H         6.0691439580       -1.4053094755       37.5793648818
  H         3.3356653436       -2.8022977707       17.0438739812
  H         1.9116884394       -2.5994936870       17.8929192699
  H         3.2229156445       -1.9412289879       18.5742067734
  H        17.7060066339        2.1176312383       21.7453624435
  H        18.8509713694        2.7574340556       22.6863305481
  H        17.5816929040        3.8240631035       22.1140499062
  C        12.3839085582        7.4456084439       10.2393057713
  N        12.0713760729        8.7355038562       10.2119697469
  O        11.1474080508       10.4103803566       11.5206761893
  S        13.3887132403        6.8091435514        8.9501077721
  C        12.1836011223        9.5326740381        8.9864749921
  H        12.3781561368       10.5512516657        9.3568082557
  H        13.0347919271        9.4553259814        8.3127732564
  C        10.8268095508        9.3583907272        8.2212489714
  H        10.7167322235        8.3617814502        7.8923632578
  H         9.9779591940        9.4959255883        8.8673325618
  H        10.6543005173       10.0588177946        7.4053801817
  H        23.5952323248       11.4323665929        4.0494441713
  C        22.6106173092       10.9639879738        3.8218654792
  H        21.9315242337       11.7720009947        3.9478444551
  C        22.4844194647        9.8952828273        4.8737177797
  C        22.6152341274       10.4479781059        2.3786148369
  C        21.7491607663       10.2131162255        6.1351661497
  H        22.0155194554        9.1115439044        4.2485922574
  H        23.4194143467        9.4532052573        5.1692729376
  H        22.8050220098       11.2884786925        1.6544544102
  H        21.6907327052        9.9997480910        2.1639106751
  H        23.4144097043        9.7326776994        2.1582200374
  C        20.7866273836        9.0529563211        6.6366389238
  H        22.5750948856       10.2616877817        6.9067311869
  H        21.2245170993       11.2229545615        6.1164784465
  C        20.0784702167        9.4761079040        7.8805643315
  H        21.4049797082        8.0857833943        6.7588438597
  H        20.0658016123        8.8377599726        5.8809712221
  C        18.8711789932       10.3772761185        7.6808246557
  H        20.7822219257        9.8601083800        8.5862028197
  H        19.7016402525        8.5503821188        8.3145459757
  C        17.5932841061        9.6466810798        7.1988166628
  H        18.7683575774       10.8404942903        8.6113235522
  H        19.0577528278       11.1280394026        6.9194343036
  C        16.3576625746       10.5810712446        6.8806002429
  H        17.2935315360        8.9861679836        8.0425907587
  H        17.7245164252        8.9785099468        6.3258751825
  C        16.8145268510       11.8712920981        6.1608481636
  C        15.9389215082       11.3595905591        8.0671638693
  C        15.1650426141        9.8975403121        6.1448953596
  C        16.6363819559       13.0000300994        6.9804639115
  C        17.3380739759       12.2610487218        4.9128932783
  C        16.0454523062       12.6923046108        8.1355316709
  C        15.3892383004       10.7591653531        9.2148474349
  H        15.5623828201        9.3982568088        5.2849060217
  H        14.7113462333        9.1946090338        6.8205913663
  C        14.0579790510       10.9067134050        5.7384889488
  S        17.0812061260       14.4885381597        6.1790794675
  C        17.5370288169       13.6571738327        4.7826273549
  H        17.5417460697       11.5318647172        4.1618635565
  C        15.7652976762       13.3214881727        9.3237391951
  H        15.2985797828        9.7207558547        9.1189175848
  C        15.0593795671       11.3965015706       10.3789996662
  H        14.3147852501       11.9231578196        5.7653192787
  H        13.3399043480       10.9992308695        6.5721045420
  C        13.2334280190       10.3758425509        4.5512745357
  C        17.9092160403       14.3336815873        3.4426051750
  C        15.2722143649       12.7319857916       10.4717233721
  H        15.8820490190       14.3960845061        9.2896076613
  C        14.7923435086       11.0956960778       11.6882856771
  H        12.2873408354       10.7631251910        4.5148343308
  H        12.9070846349        9.3796993912        4.8009114149
  C        13.9315686667       10.5480722915        3.2311642340
  C        17.9834632754       15.7170955565        3.2783301323
  C        18.4379267805       13.5228501987        2.3765501787
  C        14.9553662499       13.5096647824       11.7171017481
  C        14.6204249504       12.2061160779       12.4675912198
  S        14.6116694858        9.6081776381       12.5079218673
  H        14.8499327478       10.0439624357        3.2726484853
  H        13.9929863249       11.5830683340        3.0309294793
  C        13.1694880528        9.9585324326        2.0317642012
  N        17.6656223604       16.6866330762        4.2574132389
  C        18.3319883448       16.2551294960        2.0385255458
  C        18.8936487032       14.0361023587        1.1901989675
  H        18.4772794263       12.4414649669        2.5432994571
  C        13.7857186858       14.4365189042       11.4197620443
  C        16.1085090387       14.3551029494       12.2669884522
  C        14.2183910282       11.8522851769       13.7858749182
  C        14.2289601454       10.4292334118       13.9153717241
  H        12.6225768358        9.0469824251        2.2868523025
  H        12.4543242977       10.7243405994        1.8479011656
  C        13.9042759602        9.4893613083        0.8553728795
  S        17.7333134960       18.1878524106        3.5216735717
  N        18.2507776742       17.6493565474        2.0502731091
  C        18.8003114308       15.5146987811        0.9391733202
  H        19.2694548980       13.3415396622        0.4585506569
  H        13.7737464544       14.8138801506       10.3444994255
  H        13.9401808763       15.3951512904       11.9017587313
  C        12.4233938628       13.8536351513       11.6545590686
  H        16.5314182027       14.9981920359       11.4269345469
  H        15.8189707421       15.0825483760       13.0172966163
  C        17.2163373834       13.4829430385       12.8597525991
  H        14.0710548605       12.6602006684       14.5485764454
  C        13.9002055282        9.7847578774       15.2066087000
  H        13.9852594827        8.3481134381        0.7719340916
  H        14.8940481675        9.8373619865        0.9034963220
  C        13.1729074751       10.0630659223       -0.3747809441
  C        19.1081387468       16.1861462080       -0.2781481863
  H        12.3474692442       12.8309586713       11.3932776046
  H        12.3024514063       13.9904208599       12.7277667506
  C        11.3364187047       14.6272042100       10.9124298613
  H        17.5220015442       12.7395813415       12.0405664810
  H        16.7307526483       12.9581734263       13.7204599270
  C        18.3087396262       14.2840594705       13.4101850782
  C        13.9281313207        8.3981320603       15.3692594805
  C        13.5555391677       10.6024904625       16.3849979034
  H        12.7625908841       11.0582729961       -0.1838420139
  H        13.8664097689       10.2252261261       -1.1643099782
  C        12.0100065660        9.2197394045       -0.8747754194
  H        19.2166495416       17.2790567558       -0.2340707284
  C        19.2495413784       15.6851365969       -1.5689664770
  H        11.7059400476       14.8946135837        9.8919193269
  H        11.1153251086       15.4324007206       11.5206924172
  C        10.0755953084       13.6202877722       10.7978880739
  H        18.6712117548       14.6961813315       12.5334224890
  H        17.8580988826       15.1454750672       13.9581962211
  C        19.4055523365       13.5006775996       13.9612724795
  N        14.1692552411        7.4573654584       14.4103963538
  C        13.5746223079        7.8060302812       16.6034856096
  C        13.3032232894       10.0499235051       17.6230615177
  H        13.5541878797       11.6501493454       16.2800575566
  H        11.9426844841        9.0693775867       -1.9679138974
  H        11.1164462857        9.7421767338       -0.4184815751
  H        12.0774702894        8.2156218247       -0.3210038984
  S        19.4935948292       14.1036362636       -2.0535375340
  C        19.3842471409       16.6962286804       -2.6510199428
  H        10.2514065773       12.7356929093       10.2290202511
  H         9.7385885668       13.1986576337       11.8223973840
  C         8.9633564225       14.4592950215       10.1611124823
  H        19.3821809021       12.5144406780       13.3710913315
  H        19.2295529490       13.2606620804       15.0809889749
  C        20.7808879895       14.0385204314       13.8330605180
  S        14.1066360700        5.9746181336       15.1205140961
  N        13.4086419148        6.3862944533       16.5123537051
  C        13.2767514427        8.5646438584       17.7820983779
  H        13.1447780227       10.6625813739       18.5138170367
  C        19.6921981672       14.6994786315       -3.7056783118
  N        19.5747764362       16.0499052897       -3.8379915846
  O        19.3061412447       17.9086085619       -2.4266080792
  H         8.5292569902       14.9651987409       10.9459022878
  H         9.3889545525       15.1751409930        9.4887398768
  C         7.9556194063       13.6195038889        9.4650391540
  H        21.4493719329       13.2648503750       14.2050298783
  H        20.9534512235       14.3219572027       12.8217490330
  C        20.9779627187       15.2566704309       14.8084211295
  C        12.9356835798        7.8271706856       18.9254575230
  S        20.1769802076       13.6366574608       -5.0230801171
  C        19.5115704991       16.6596942034       -5.1622843937
  H         8.5882785521       13.1157487523        8.7230338715
  H         7.5399756937       12.7620875179        9.9892954034
  C         6.8646701196       14.3286064344        8.6900661532
  H        21.3190091674       14.8826630793       15.8026014774
  H        20.0444004988       15.7047347585       15.0821973996
  C        21.9836964398       16.2418178534       14.2600778129
  H        13.2424295064        6.7757011770       18.8288563249
  C        12.5682850312        8.1239756855       20.1945125637
  H        20.2285867748       16.0706030362       -5.8199077583
  H        20.0807227347       17.5554892561       -4.9704349744
  C        18.0831013772       16.8550446353       -5.7145170118
  H         6.5609915645       13.8903577700        7.6848112051
  H         7.0378788838       15.3557695145        8.4768417244
  C         5.5840826616       14.2396491758        9.4227232755
  H        23.0216182286       15.9693687263       14.1853372379
  H        21.6107344892       16.4306788263       13.2745092629
  C        21.9055008551       17.5986480035       15.1161711154
  S        12.1712655068        9.7082605268       20.7168993758
  C        12.3422577540        7.1116247886       21.1658534678
  H        17.7087134261       15.9903248076       -6.2136506662
  H        18.0089487617       17.6124643852       -6.5525729088
  H        17.3792090707       17.1285100172       -4.9288148074
  H         5.6467214955       14.7329542415       10.4490805304
  H         4.7199616097       14.6475837378        8.8841865404
  H         5.2990221992       13.2473094616        9.6880866698
  H        20.8596621882       17.8597662609       15.2366981807
  H        22.4515807140       17.4270286449       16.0654749005
  H        22.2963219822       18.4231550519       14.4581950770
  C        11.6313166061        8.9268848897       22.1944023729
  N        11.6779512882        7.5966881645       22.2207063633
  O        12.5987729964        5.8784923264       20.9707574251
  S        11.0081697793        9.8591451078       23.5453167680
  C        11.5587284815        6.8553664776       23.4698803809
  H        11.1457971430        5.8359800795       23.3211452512
  H        10.6839060776        7.1797916639       23.9945126065
  C        12.8335864953        6.8432275257       24.2768288357
  H        13.4165031898        7.7809542304       24.3808692981
  H        13.5969301098        6.0965323217       23.9728120858
  H        12.6299883004        6.5581221361       25.3137741606
