352
 i =    98700, time =    98700.000, E =        25.2983905746
  H        10.0305753152        6.6262529130       32.0101546681
  C        11.0540459828        6.5421475077       32.3279412223
  H        11.1141028421        7.5233463130       32.7777337028
  C        11.9629226753        6.1757891632       31.1059158065
  C        11.3099835756        5.5261223288       33.5214189445
  C        11.1706452471        5.2566942605       30.1763821621
  H        12.2644028185        7.0539608698       30.5887049280
  H        12.8438192888        5.6384120689       31.4661810192
  H        11.2159067536        4.4905359149       33.3158883612
  H        12.3817830334        5.7427869763       33.8935438999
  H        10.6135720065        5.7378760038       34.3002227237
  C        10.3957781987        6.0922409712       29.0357485297
  H        10.5187248589        4.6727494166       30.8611483632
  H        11.9612558811        4.6389465396       29.7309775609
  C        10.7960406874        5.9610268809       27.5704025768
  H         9.3519671542        6.0808597205       29.1116612915
  H        10.5834390959        7.1535017392       29.2416062709
  C         9.8074167261        5.2826764034       26.6217115604
  H        11.8069878940        5.7470086149       27.3016766478
  H        10.8399273931        7.0148188459       27.2590499427
  C         8.5145883047        6.0596020479       26.2209892802
  H        10.3529166973        4.9619198231       25.7366589006
  H         9.5122622490        4.3479283823       27.0781941043
  C         7.5056531642        5.2481054442       25.4067537207
  H         7.9704237447        6.3536675122       27.1202246751
  H         8.7077984823        6.9399022555       25.5823457752
  C         7.2582991378        3.9098790516       26.1065823993
  C         8.0794223732        4.4887283109       24.1809158057
  C         6.1852724788        6.0332834002       25.0177935489
  C         7.5419863248        2.8145994836       25.3390356029
  C         6.6830766839        3.5148277004       27.3398466979
  C         8.1307105954        3.1509618147       24.1371254626
  C         8.5410391405        5.1443848560       23.0318362149
  H         5.5094824552        5.4364996449       24.4296271128
  H         6.4638730795        6.7354022122       24.3099887162
  C         5.3541957375        6.5698869261       26.1820518012
  S         7.1134628341        1.3676393269       26.0894260792
  C         6.5331276521        2.1810221325       27.5162851282
  H         6.4476337311        4.2925483983       28.0715118599
  C         8.3727087658        2.5331341795       22.9485949846
  H         8.5577465404        6.2546287122       22.9211295183
  C         8.9173107410        4.4929514346       21.8785454616
  H         5.4890548654        5.9148834367       27.0500807218
  H         5.7647189143        7.5077446866       26.4763703622
  C         3.8874208313        6.5248392874       25.7885061832
  C         6.2335722749        1.4119185636       28.7724579982
  C         8.7361123958        3.1624528007       21.8056872137
  H         8.1337994559        1.4833690519       22.9955483582
  C         9.2740921639        4.8477834749       20.6512536947
  H         3.5271575963        5.6878007809       25.2486492650
  H         3.7386845774        7.3147337645       25.1116204655
  C         3.0106753733        6.7141768461       27.0044972971
  C         6.2691654954        0.0220447844       28.9530847434
  C         5.8564627506        2.2273183136       29.9274439478
  C         9.1997736517        2.4202908318       20.5517723329
  C         9.4860057037        3.7383805638       19.8834656561
  S         9.7207190209        6.3338687199       19.9043807605
  H         2.2019385881        7.3533339117       26.6571280197
  H         3.5262648041        7.3114347380       27.7392556608
  C         2.3796338352        5.3844806285       27.5640039476
  N         6.8154845972       -0.9121134602       28.0203322180
  C         5.9876503063       -0.5748922946       30.1223790252
  C         5.6248950794        1.6331633770       31.1510308879
  H         5.8491018466        3.2897971390       29.8268752897
  C         7.9654436995        1.7275748897       19.8746253398
  C        10.4045299575        1.4938679113       20.9177251659
  C         9.9482146412        4.1144621863       18.6537681379
  C        10.0219075727        5.4711722527       18.4849076177
  H         1.7471563607        4.9883276012       26.8123901791
  H         3.2323792972        4.7164860247       27.6537020581
  C         1.4888480899        5.4864816537       28.8365533536
  S         7.0991620897       -2.3031436978       28.7615294678
  N         6.2237463511       -1.9823284989       30.1626163240
  C         5.6587568352        0.1191044749       31.3046462899
  H         5.5219237562        2.3662460154       31.9661551508
  H         7.6619026352        1.0528552993       20.6620039954
  H         8.1860875889        1.2601878712       18.9361274867
  C         6.7420578904        2.5915801286       19.7281241261
  H        10.4837156628        0.7885169373       20.1106179285
  H        10.2552508227        0.9190123887       21.7860068657
  C        11.7323314424        2.2855707603       20.9873647635
  H        10.0338129887        3.3563098199       17.9503474756
  C        10.3193030300        6.1757287940       17.1920909193
  H         1.2555216305        4.4804660897       29.2519875954
  H         0.5486359021        5.9997456874       28.5514333471
  C         2.0740887317        6.2827074165       30.0213495846
  C         5.5525864637       -0.6334328967       32.4675718698
  H         6.9600116417        3.4031891130       19.0260159767
  H         6.4752210961        3.1448108939       20.6645859321
  C         5.5170006104        1.8472066320       19.2659295545
  H        11.4927735571        3.2065872942       21.5176398249
  H        11.7396660598        2.5937768841       20.0067700067
  C        12.9080796285        1.4962021300       21.5834340173
  C        10.4468895830        7.5990016426       17.0314408487
  C        10.4358323256        5.4699751651       15.8747610592
  H         2.5325615380        7.2386343322       29.6746209897
  H         1.3155813185        6.5234350890       30.7047984907
  C         3.0787377789        5.4962016280       30.9689851859
  H         5.6808478977       -1.6728377396       32.4433679976
  C         5.2268768806       -0.3005185510       33.7377610580
  H         5.3281139596        1.1734804295       20.0420701478
  H         5.7913746498        1.2842079072       18.4427689799
  C         4.3007477509        2.5068923213       18.7423152838
  H        12.5166227624        0.9409896612       22.4824791375
  H        13.3290167357        0.8018272035       20.8520074937
  C        14.0692095720        2.4409193133       21.7502176231
  N        10.2734983258        8.5856077036       18.0501969010
  C        10.7326106452        8.2048071220       15.7937892032
  C        10.7076440440        6.1061008227       14.6789326705
  H        10.4298016133        4.4033965826       15.8821601450
  H         2.5569669728        4.7511748271       31.4943477398
  H         3.8991913424        5.1242780656       30.3559230159
  H         3.4461131459        6.2920976567       31.5684896721
  S         4.7426217793        1.2820136378       34.1776396872
  C         5.1910044170       -1.2773419902       34.7809449443
  H         3.6039745257        2.9910768878       19.3935991853
  H         4.6600571789        3.2456209610       17.9330264942
  C         3.3835467342        1.5563271113       17.9665465267
  H        13.6716663300        3.2572154104       22.2108199924
  H        14.3124846684        2.7983483709       20.6890254071
  C        15.2048058921        1.7831323631       22.5835997288
  S        10.2779465534       10.0363733115       17.4647136869
  N        10.8314026805        9.6149330044       15.9650734872
  C        10.8927926852        7.5983512994       14.5533371897
  H        10.8268657767        5.5358784689       13.7696277538
  C         4.4979574741        0.6364146957       35.8105520774
  N         4.8022182947       -0.6992205336       35.9422253312
  O         5.5022098975       -2.4709443646       34.6010992808
  H         3.7695272739        1.2943130859       17.0320883143
  H         2.4787085379        2.1212159486       17.6910563265
  C         2.9819284545        0.3858242401       18.8863868873
  H        14.6872564613        1.2852935160       23.3870288672
  H        15.7848775170        1.2287471365       21.8605319911
  C        16.1297444167        2.7088236551       23.4039090757
  C        11.2537267915        8.3426493052       13.4342300546
  S         3.9383945760        1.4525937760       37.2621394485
  C         4.7893130242       -1.4153433009       37.2295428442
  H         3.8629765303       -0.2236815660       19.1089178299
  H         2.7284128594        0.7453724585       19.8226567693
  C         1.8584848788       -0.4600740615       18.2960010907
  H        15.5666112904        3.1751985713       24.1274787470
  H        16.4852110809        3.6236390239       22.8898416522
  C        17.2507427041        1.9174029287       24.0252394558
  H        11.2427385466        9.4019700864       13.5303564258
  C        11.6603537071        7.8535370132       12.2006281258
  H         4.0758778730       -1.2537464169       38.0901701386
  H         4.6184407924       -2.4240960695       36.9975503398
  C         6.1979952748       -1.2922265538       37.8428372465
  H         1.1628321976        0.2042786893       17.9044286592
  H         1.3606560140       -0.9964505475       19.1521199073
  C         2.2834024659       -1.3989590948       17.1771691186
  H        17.4449161342        2.4801099106       24.9911797672
  H        16.7997820164        0.9411501999       24.2082168162
  C        18.5098539650        1.7726251213       23.1872754093
  S        12.3312981799        6.3121257609       11.8598273461
  C        11.6345530095        8.8731936236       11.1583885213
  H         6.4759748747       -0.3260036739       38.2863012355
  H         6.3025405758       -2.0752526293       38.5930107177
  H         6.9216380832       -1.3100250974       37.1008859994
  H         1.3791339537       -1.8537830194       16.8267227595
  H         3.0779144547       -2.1929660255       17.3954159822
  H         2.7432266014       -0.8240632306       16.3563880398
  H        19.1517478642        1.0641990757       23.6988365733
  H        18.9385696204        2.7667452122       22.9598441405
  H        18.1904578339        1.3280556922       22.2364684779
  C        12.5678453397        6.9784941955       10.2439906585
  N        12.3645025679        8.3756158781       10.1332231402
  O        11.2675992352       10.0672462479       11.2605087552
  S        13.1335704210        6.1172781568        8.7968723552
  C        12.5712712418        9.1700117611        8.9678437215
  H        12.7544105563       10.2060579766        9.1095086095
  H        13.4106262341        8.8004219188        8.5419976740
  C        11.4187214539        9.0162170131        8.0413873855
  H        10.4684909596        9.3260293893        8.4787179727
  H        11.6327869697        9.5743783773        7.1527739987
  H        11.4595090721        8.0088959388        7.7180165508
  H        21.5185094423       11.2292968576        3.5577799491
  C        22.0914054790       10.3289574950        3.4359232411
  H        21.4344289975        9.4700043887        3.5201577655
  C        22.9953090362       10.2348399475        4.6055344083
  C        22.9037364642       10.3106595819        2.1061447272
  C        22.3180518580       10.5343914729        5.9515827467
  H        23.4959009457        9.2541298242        4.6610229342
  H        23.8366288856       10.9282467300        4.3991402997
  H        22.1680271694       10.1234460873        1.3500089700
  H        23.6560525827        9.4620725355        2.1281080849
  H        23.3397638450       11.2646061788        1.8810277061
  C        21.4269617067        9.4286581429        6.3937207665
  H        23.1393996459       10.8297486983        6.6360080092
  H        21.8131275848       11.4744486917        5.9116696987
  C        20.5939499164        9.6016640049        7.6665320578
  H        21.9581739244        8.5059591215        6.5267811096
  H        20.7155913580        9.2920394661        5.5716533222
  C        19.3942404524       10.4737162950        7.5021022125
  H        21.2552604396       10.0032065993        8.4097353494
  H        20.3003968106        8.6595757976        8.1670460567
  C        18.0328597242        9.8369676428        7.2054997642
  H        19.3068563077       11.1430031366        8.4574491542
  H        19.6609073812       11.1510754114        6.6585419119
  C        16.8407767530       10.7807810463        6.9237230947
  H        17.7366230114        9.0757394034        7.9227441349
  H        18.2637266427        9.3172395124        6.3003230653
  C        17.2059678426       12.0957025483        6.1710163787
  C        16.5035336159       11.4527826269        8.2080260546
  C        15.6196495058       10.1717383535        6.2454369151
  C        16.9528876440       13.1622528394        6.9932071087
  C        17.6323410086       12.5786305455        4.8808533471
  C        16.5341586876       12.8228028232        8.2406137728
  C        16.0637665079       10.6628244531        9.2868376577
  H        15.8627457009        9.8915246374        5.2375233942
  H        15.3526156841        9.3010584843        6.8396541317
  C        14.3843105695       11.1259259932        6.1518257534
  S        17.3238101379       14.6416569142        6.4047778266
  C        17.7878225046       13.9371044207        4.8417231429
  H        17.7852806136       11.8473737937        4.1314734774
  C        16.2083590773       13.3961507535        9.4560297349
  H        15.9388758460        9.6334428935        9.2980222266
  C        15.6922276789       11.2991496631       10.4406225191
  H        14.6603324036       12.1460166213        5.9315807098
  H        13.8851041116       11.2949550608        7.1900247836
  C        13.3037512191       10.7285211639        5.1314501020
  C        18.2767077822       14.6885228702        3.6162759690
  C        15.6845429320       12.6633435263       10.5071672948
  H        16.2462527276       14.4819331515        9.5968442408
  C        15.2319521901       10.9228079523       11.6505486108
  H        12.2978122820       11.0754045600        5.4360747746
  H        13.2517818532        9.6941964550        5.1485380386
  C        13.5560996054       11.1446361740        3.7003497838
  C        18.2229117448       16.0734465212        3.4263302681
  C        18.6339599372       13.9400083971        2.3876939793
  C        15.3152525737       13.3041153248       11.7437137091
  C        15.0239039432       12.0054385101       12.5017678294
  S        14.9042866854        9.4197955419       12.4663287316
  H        14.5974247990       11.1759539308        3.4790053042
  H        13.1983752344       12.1581302954        3.6269865958
  C        12.9486412139       10.1879396403        2.6955680987
  N        17.8948852897       16.9698826428        4.4491632132
  C        18.5081983604       16.6994317144        2.2181960163
  C        18.8198600305       14.5681567701        1.1894544285
  H        19.0037143262       12.8980602030        2.4751408817
  C        14.0354399794       14.0596518409       11.6511012817
  C        16.5334587564       14.1915852249       12.3408969896
  C        14.6243422355       11.6231492872       13.7946042326
  C        14.5163602988       10.2527555674       13.8739216873
  H        13.3649715404        9.2145045709        2.6972128840
  H        11.8049463047       10.0659890249        2.8707198815
  C        13.2879667517       10.6067962639        1.2665273409
  S        17.7790448075       18.4341828580        3.7340470551
  N        18.4097835720       18.1014302194        2.3410748168
  C        18.7965194113       15.9990027476        1.0348898599
  H        19.0326481535       13.9200931743        0.3850774512
  H        14.1208105477       15.0752435101       11.2228646131
  H        13.6444202499       14.2741107867       12.5776870510
  C        12.9147869376       13.3161336169       10.9562613942
  H        16.6760599646       14.9854787348       11.5769857633
  H        16.2131107253       14.7752828078       13.1587679239
  C        17.8623817686       13.5120639872       12.6076707638
  H        14.3912250522       12.3297850068       14.5649238002
  C        14.2515234157        9.4720319670       15.1294498007
  H        14.3183245734       10.4618832796        0.9809852836
  H        13.2625696012       11.6992843054        1.2225509599
  C        12.4216172476       10.0055508488        0.1739815705
  C        18.9182180354       16.7639255385       -0.1858967471
  H        13.1392704451       12.8310220461       10.0218194333
  H        12.5437406175       12.4335851292       11.5732565034
  C        11.5764028309       14.1374769069       10.6802752465
  H        18.1925312499       13.0250510354       11.6736403510
  H        17.8202824667       12.6685068308       13.3386661920
  C        18.9426597040       14.4439115855       13.1314573513
  C        14.1834091773        8.0537097564       15.2876525224
  C        14.0714753857       10.2754747278       16.3785100115
  H        12.5592316303        8.9762498001        0.0497131204
  H        11.2936652553       10.2199933942        0.3224647371
  C        12.8188327962       10.5349870129       -1.1991053406
  H        18.4842348939       17.7561406359       -0.1092000363
  C        19.3561508551       16.3336322566       -1.4212979969
  H        11.8711446604       15.0216440074       10.1289706987
  H        11.1445966463       14.6034174523       11.5486181080
  C        10.5404902902       13.3698070331        9.8170735536
  H        19.0379712684       15.2187470073       12.4137602738
  H        18.6647262919       14.7956594154       14.1556985167
  C        20.2784306501       13.6865103684       13.2134273546
  N        14.4102329911        7.0806618158       14.2679936629
  C        13.8221745047        7.4695186001       16.5033994707
  C        13.8388230618        9.5961133845       17.5651615580
  H        14.0787053061       11.3625101073       16.3375868905
  H        11.9662522818       10.2615662013       -1.8737993955
  H        13.7646665193       10.1520575399       -1.6422827518
  H        13.0666262900       11.5884457761       -1.2449258891
  S        19.6341347704       14.7183351040       -1.9710177064
  C        19.2583974406       17.3694417378       -2.4406286742
  H        10.2306557269       14.0632653187        9.0087394640
  H        11.0873782865       12.5385621549        9.3535964805
  C         9.4180662032       12.8640117298       10.7428386067
  H        20.6095365351       13.6106302716       12.1996692211
  H        20.1488323279       12.7527289944       13.7097824880
  C        21.2130346798       14.4940228884       14.1031309854
  S        14.2170732167        5.6324976617       14.9268612113
  N        13.7286072823        6.1231891829       16.3704090625
  C        13.6854841027        8.1267339168       17.7283478578
  H        13.7507425828       10.1987112486       18.4241167997
  C        19.5340919877       15.4334485726       -3.5911170437
  N        19.4089030179       16.7911017285       -3.6655938480
  O        18.9771396010       18.5696716394       -2.3171980339
  H         9.1415069755       11.8966994921       10.4658951260
  H         9.8146229082       12.8643666150       11.7521124782
  C         8.1922460161       13.7911074413       10.8141630638
  H        20.9211482826       14.4887337909       15.1272728059
  H        22.1190588362       13.9333356293       14.1711345986
  C        21.5327292015       15.8644755699       13.4782467396
  C        13.1465586311        7.4158556881       18.8753750285
  S        19.9349622061       14.4697499697       -4.9888339817
  C        19.2583037040       17.4706393431       -4.9697691011
  H         7.5439697029       13.2945527994       11.5686109769
  H         8.4945403700       14.7475821222       11.0950447282
  C         7.4196983412       13.7948196305        9.5063717681
  H        21.1397343483       15.9830271581       12.5053330155
  H        22.6128743109       15.8773778026       13.3208457548
  C        21.1278564051       17.0015637726       14.3897755822
  H        13.1550078045        6.3517736260       18.7589165366
  C        12.7293511458        7.7936856460       20.1147009341
  H        20.1478982522       17.0475862634       -5.5498879422
  H        19.3942817989       18.5018931403       -4.8604133041
  C        17.8548855664       17.2604812146       -5.5886430817
  H         7.5879132877       12.9211914339        8.8760362524
  H         7.6134346311       14.5663255500        8.8412673571
  C         5.9615481069       13.7821394548        9.8011407965
  H        20.8526259215       17.8548482452       13.7891853667
  H        20.3001378789       16.7485183918       15.0882800552
  C        22.3175285294       17.4556584354       15.2742796674
  S        12.5204573481        9.3685547893       20.6492023861
  C        12.6337674187        6.8038056067       21.1864499602
  H        17.8479272316       16.2983168700       -6.1229263128
  H        17.5381937092       18.1637475890       -6.2162261777
  H        17.1786597854       17.4308720003       -4.7898641009
  H         5.6570584707       12.7390343825        9.9382956413
  H         5.6059511256       14.2911498981       10.7092239849
  H         5.4168165808       14.2244959761        8.9528774189
  H        21.9722029112       17.7802641946       16.2452079555
  H        22.9882229100       16.6053502702       15.4392648365
  H        22.9505297934       18.3414753752       14.9936404965
  C        12.1592428873        8.7495546285       22.2847213786
  N        12.1278525659        7.3712044361       22.2745753085
  O        12.8032963976        5.6220017855       21.0308693211
  S        11.6951590967        9.6758055927       23.7446620257
  C        11.9111039575        6.6235077658       23.4533979635
  H        11.3924942566        5.6865240687       23.2681627152
  H        11.2599726544        7.1617415674       24.1147044067
  C        13.1757264391        6.2935496567       24.2890934233
  H        13.0750746966        6.7621589270       25.2591415114
  H        14.0541096165        6.6916513637       23.7577934332
  H        13.3936872533        5.2822580373       24.5174756257
