352
 i =    64300, time =    64300.000, E =        25.1159113630
  H         9.7818828645        4.8357615182       32.1004925692
  C        10.3074419669        5.8181007864       32.1724501744
  H         9.5864141506        6.4284134445       32.6559400837
  C        10.6027338900        6.6341582270       30.9157379566
  C        11.5146567423        5.6732482097       33.1210279581
  C        11.0498965507        5.6640894865       29.8627171445
  H         9.7128843415        7.2548043928       30.6517871341
  H        11.3985179373        7.3447857973       31.1429459875
  H        11.6278125771        4.6797946012       33.4853666411
  H        12.4548298000        5.9702223059       32.7018455650
  H        11.4065383374        6.2719190518       33.9869701145
  C         9.9172609890        5.1725811920       28.9929269969
  H        11.6385074856        4.8684568493       30.3615822326
  H        11.7916911747        6.1712698813       29.2416292774
  C        10.3848693710        5.0810057603       27.5322010508
  H         9.5660435386        4.1532484892       29.1629540199
  H         9.0846577811        5.8597664306       29.0425561742
  C         9.4467162289        4.4526288776       26.4462888755
  H        11.3230086764        4.4682722391       27.4793182386
  H        10.7410294193        6.1014580606       27.2101135558
  C         8.2364593260        5.3031229743       26.0878729904
  H        10.0172307642        4.1914924758       25.5331710490
  H         9.1254777977        3.4550619094       26.8951437173
  C         7.1487867789        4.5096395502       25.3781884432
  H         7.7584875928        5.7519616131       27.0051948014
  H         8.4719947752        6.1520867244       25.4998010165
  C         6.7579674344        3.1691576862       26.0212410625
  C         7.6492669510        3.8185310291       24.1628925922
  C         6.0066262660        5.3859326284       24.9710480814
  C         7.0750778886        2.0733156977       25.2356808408
  C         6.3646439097        2.6971786789       27.2942534933
  C         7.6487051086        2.4569397128       24.0394857369
  C         8.0768270500        4.4650620500       22.9925686430
  H         5.4917485972        4.9031290698       24.1939107056
  H         6.4001463556        6.3504286586       24.6837224134
  C         4.9166100655        5.5314901331       25.9283608826
  S         6.7533822931        0.5873007255       25.9565933452
  C         6.2059506743        1.3428131869       27.4089649237
  H         6.1308758790        3.3984636571       28.0085228697
  C         7.9335045401        1.8162670526       22.8021367348
  H         8.0998693672        5.5543059137       23.0492072234
  C         8.5101329393        3.8358567523       21.8303863877
  H         4.5865892785        4.5692500893       26.3342976492
  H         5.3333995102        6.1446507990       26.7282956437
  C         3.5734207900        5.9714743220       25.2169478209
  C         5.6494789542        0.6039628425       28.5963299837
  C         8.3975993306        2.4961721371       21.6737830033
  H         7.8201101700        0.7736877246       22.8459093560
  C         8.9576752774        4.2177955649       20.5702727254
  H         3.2768727358        5.2739208545       24.4672339410
  H         3.5969681745        6.8784554047       24.6365966411
  C         2.4320066523        6.2864989574       26.2248831491
  C         5.8072256445       -0.7767966114       28.8787106690
  C         5.0327074520        1.4319337407       29.7440230829
  C         8.7679751870        1.7532178881       20.4259300320
  C         9.1722702895        3.1068211826       19.7997775368
  S         9.2881017083        5.7021183852       19.8762620551
  H         1.8022721758        7.0397727310       25.8484148718
  H         2.9071596667        6.8049224907       27.0754392902
  C         1.6529155944        5.0244446117       26.6573432162
  N         6.2232460070       -1.7914339112       27.9911237976
  C         5.5413486583       -1.3106220261       30.1185442821
  C         4.8039540046        0.8573526880       30.9513283076
  H         4.8544778655        2.4519505327       29.5273098325
  C         7.5952388600        0.9737361378       19.8487273641
  C         9.9881626159        0.7868710190       20.6310001743
  C         9.7339986736        3.5019022441       18.5535559766
  C         9.8969127749        4.8786934998       18.4551795912
  H         0.6762072757        4.9717958897       26.2232898728
  H         2.1194715471        4.0608544750       26.4327003123
  C         1.5631540063        4.9590551375       28.1880407540
  S         6.3026085968       -3.1896676587       28.7288585347
  N         5.9474801113       -2.6584065644       30.1852895518
  C         5.1009441251       -0.5478567209       31.2122687891
  H         4.2980626768        1.4224979930       31.7218697232
  H         7.2950710870        0.1646628106       20.5019042740
  H         8.0105273391        0.5747850817       18.9089658200
  C         6.3427532304        1.8818980868       19.6406983944
  H        10.1074249792        0.2017520121       19.6772066583
  H         9.6884963792        0.0971359846       21.3631041500
  C        11.3484363747        1.4856794817       21.0500916616
  H         9.9600442158        2.7031594501       17.7268720450
  C        10.3099528120        5.5950200299       17.2262348019
  H         0.6956557428        4.2944032733       28.2726395361
  H         1.2713233409        5.9802449539       28.6179105887
  C         2.7927487691        4.3313092945       28.9024212008
  C         4.9673826071       -1.2322429945       32.4487399879
  H         6.5193662990        2.6649382264       18.9192099593
  H         6.0897762634        2.5545755483       20.5262715147
  C         5.0824801537        1.0557881238       19.2270205809
  H        11.1817091180        1.9639243228       22.0052796937
  H        11.5868321644        2.2439588402       20.2791028541
  C        12.5959219015        0.6024245816       21.1443139853
  C        10.2315719494        7.0145337454       17.1728895810
  C        10.6181800687        4.9263887378       15.9511890809
  H         2.9146414718        3.2764020340       28.5242031294
  H         3.6187422422        4.9443337659       28.5698647788
  C         2.7200101242        4.4962730855       30.4296307695
  H         5.1709017919       -2.3151046627       32.5190687571
  C         4.7338429770       -0.7164073474       33.7126694325
  H         4.2277579059        1.7324449255       19.1248216539
  H         4.7588720898        0.4373502412       20.0433303482
  C         5.2582939044        0.3192636355       17.8572325168
  H        12.4598706684       -0.2785027280       21.7835517790
  H        12.6707923924        0.1099783178       20.2361544906
  C        13.9534199684        1.3000500265       21.2586087727
  N         9.8496618223        7.9084262738       18.2147669246
  C        10.5381226656        7.7223839170       16.0304584774
  C        10.9894418422        5.6231145362       14.8779614965
  H        10.7961508746        3.8776445873       15.8996868208
  H         2.4405381804        5.5813340985       30.5630422514
  H         1.9012655987        3.7911970476       30.7773067682
  H         3.6675017698        4.2245827897       30.8524803693
  S         4.5458271028        0.9375329878       34.1766153874
  C         4.6930236950       -1.6634195423       34.8450035454
  H         6.0150926827        0.8471592431       17.2913210333
  H         5.6545740392       -0.6508236442       17.9019613063
  C         3.9494575324        0.3576193802       17.0601812264
  H        14.0274947167        2.2377018275       20.6532082710
  H        14.6739240682        0.5879070222       20.8763477943
  C        14.1910500230        1.6544483950       22.7549451315
  S        10.1529083563        9.4484758196       17.7317405917
  N        10.6561895242        9.1277671548       16.2165991928
  C        10.9231383583        7.1473907650       14.8098712552
  H        11.1056901098        5.1972760874       13.9222730217
  C         4.3110923728        0.3683301219       35.7951148551
  N         4.4952870901       -0.9842813219       35.9515355206
  O         5.0661804316       -2.8696913659       34.8033617516
  H         4.0604935508       -0.2049126344       16.1114084271
  H         3.6850370992        1.3842691225       16.7334847781
  C         2.8001283892       -0.2810368551       17.8241073732
  H        13.3080174638        2.0804058355       23.2958929421
  H        14.5795905634        0.6872075919       23.1739372350
  C        15.4529364157        2.5446747000       22.9463384684
  C        11.1390783877        8.0161485038       13.7011699705
  S         4.3182395482        1.3785338390       37.2848235554
  C         4.6964468507       -1.6269149460       37.3020303536
  H         2.6998943499        0.1936985623       18.7567538293
  H         1.7678550060       -0.0223100532       17.4499203026
  C         2.8938428169       -1.8070431053       18.1607177762
  H        15.6731259236        2.5979068181       24.0045289331
  H        15.3884178427        3.5441630786       22.5092539159
  C        16.7347535254        1.9431161182       22.3480100670
  H        10.7004164561        9.0655647472       13.8338558499
  C        11.6273992881        7.7087823095       12.4121495237
  H         4.2512266284       -1.1261878375       38.1551432516
  H         4.3661789496       -2.6505755643       37.1043090385
  C         6.1443272323       -1.6193621833       37.6333998421
  H         2.5593385520       -2.0103543316       19.1869834265
  H         3.8937180068       -2.1559216692       18.0336059674
  C         2.0156946896       -2.6807391201       17.2331066679
  H        16.6819392785        0.8691512311       22.3030010685
  H        16.9279154053        2.2343974368       21.3528747716
  C        17.9970948707        2.0968960718       23.2645862870
  S        12.2289690571        6.1954058023       12.0016243357
  C        11.7944411566        8.7933318278       11.4320743160
  H         6.6004173704       -2.5912874979       37.8159198713
  H         6.6144988613       -1.0151796865       36.8992512325
  H         6.3305352510       -1.0059847764       38.4909057285
  H         1.5447011714       -3.5378736273       17.7894364261
  H         2.4706597511       -2.9100378037       16.2496495458
  H         1.1453886855       -2.0751671656       16.9623800873
  H        17.8563755166        2.1196184076       24.3229134243
  H        18.3783409607        3.0852277615       23.0579478454
  H        18.8008441057        1.4034275854       22.9405205265
  C        12.6170504643        6.9090800591       10.4558749126
  N        12.4049419194        8.2559513420       10.3444341389
  O        11.5138612642        9.9234527512       11.7696645375
  S        13.3886080456        6.0730280212        9.1413344705
  C        12.5652313095        9.0849576849        9.1852615151
  H        12.6781479677       10.1299326638        9.5331956133
  H        13.4351761525        8.9704778739        8.5262041025
  C        11.2329686416        9.2131348448        8.3794944120
  H        10.3454364483        9.0237365105        8.9587521506
  H        10.9670366706       10.2564703133        8.1735623024
  H        11.3442318861        8.6248525115        7.4822836781
  H        22.8783291031        8.9761999012        2.7827412543
  C        22.8384624618        9.9333763870        3.3741297571
  H        23.5979248828       10.5306126160        2.8834111520
  C        23.2804626497       10.0193967076        4.8411934773
  C        21.4437360351       10.5219813085        2.9823148089
  C        22.2937400124       10.2454671303        5.9828744710
  H        23.8704534429        9.1208669478        5.1428135713
  H        24.0104143589       10.7894022912        4.6799291808
  H        21.3091443002       10.4151750167        1.8935930028
  H        21.3988637553       11.6287402762        3.2579287390
  H        20.6567878444       10.0469474393        3.5435468926
  C        21.4015604728        9.0964203305        6.2907596371
  H        22.8347698447       10.3720305595        6.9683273043
  H        21.7135599635       11.1829052338        5.8370791561
  C        20.6468873490        9.0670655240        7.5523237145
  H        22.0812023976        8.2457261617        6.4061003143
  H        20.8472272782        8.7919208413        5.4709242511
  C        19.4002337080        9.9618174905        7.5619156468
  H        21.3540680307        9.4557850805        8.3406185665
  H        20.4694667953        8.0676446008        7.9025630634
  C        18.0581566065        9.3588457098        7.0053898293
  H        19.3422663532       10.2680526992        8.6303753549
  H        19.5794998034       10.8602050887        7.0293373551
  C        16.8810780693       10.3702788656        6.8844615387
  H        17.7732263430        8.5714540500        7.6907221299
  H        18.2745012510        8.8559925921        6.0675616408
  C        17.3617303825       11.6855554364        6.2222681414
  C        16.4970438328       11.0997420521        8.1200103270
  C        15.5811107358        9.8112862023        6.1675704458
  C        17.2499403053       12.7876672788        7.0359825119
  C        17.9295828608       12.0859518325        4.9778780444
  C        16.6801106813       12.4667195671        8.2517866770
  C        15.9391674080       10.4086166410        9.2138989264
  H        15.8084700974        9.4209565645        5.1472190037
  H        15.2726139343        8.8266344597        6.6369495418
  C        14.4029722221       10.8269906699        5.9881061759
  S        17.7759011496       14.2702642643        6.3447104353
  C        18.2037863623       13.4500093594        4.9209126275
  H        17.9894479189       11.3500355761        4.2364885287
  C        16.2919451773       13.0180934626        9.4631551503
  H        15.8853750306        9.3066465566        9.1571466915
  C        15.5942061561       11.0413293838       10.3498963863
  H        14.8571679958       11.7128135401        5.5449852564
  H        13.9824325879       11.0767055045        6.9353254314
  C        13.3138300043       10.4984150783        5.0161624376
  C        18.4514472493       14.1568493105        3.6189216527
  C        15.6911415164       12.3726386701       10.5290915842
  H        16.5045990353       14.0174193836        9.4320093759
  C        15.2172133412       10.6168546100       11.6292212729
  H        12.8450502804       11.3518117776        4.8124646262
  H        12.5224944072        9.8195923188        5.3577887636
  C        13.6513497867       10.0884343657        3.5842521929
  C        18.3670382506       15.5677917721        3.3884676935
  C        18.7775306260       13.3130014531        2.4174109103
  C        15.3646220230       13.0525075623       11.8460848833
  C        15.1180280911       11.6792101966       12.4499712832
  S        14.9010512160        9.0266049592       12.3322520840
  H        14.3713796244        9.2691524129        3.5244976837
  H        14.2125435178       10.9465858133        3.0819162889
  C        12.3648031883        9.8876048126        2.7805891328
  N        18.1281284944       16.6127637203        4.3144087262
  C        18.5665982406       16.0649770148        2.0939974831
  C        18.8936626459       13.9069487122        1.1668564799
  H        18.9652771840       12.2672834013        2.5633671716
  C        14.1094647456       13.8760642895       11.7147689144
  C        16.5042092424       13.9444913324       12.4651202212
  C        14.7987755729       11.1976236804       13.7471221756
  C        14.5773421058        9.8051548801       13.8585111550
  H        11.5860218780        9.2781966858        3.2566014409
  H        11.8486715366       10.8544521117        2.7542885318
  C        12.5185180943        9.2691963703        1.3954116878
  S        18.1641780461       18.0571663587        3.5028820378
  N        18.4090119880       17.4635243573        2.0253855137
  C        18.7778105719       15.3309703595        0.9488728209
  H        19.2831830108       13.2556875280        0.3797491884
  H        14.3176564698       14.6213841882       10.9611711286
  H        14.0077776100       14.4485765673       12.6578256513
  C        12.8419480172       13.0501121785       11.3425482452
  H        16.6823021073       14.7941879767       11.8466288106
  H        16.1638965313       14.2495993417       13.3833247962
  C        17.8083717935       13.2390736608       12.5429236196
  H        14.5598371701       11.9611160918       14.4661858844
  C        14.2347589073        8.9827412737       15.0753231199
  H        11.6275238516        9.3472333048        0.7262827167
  H        12.5094169265        8.1381749684        1.4655971147
  C        13.7471773801        9.8314147016        0.6449892155
  C        18.8947235083       16.0609287788       -0.2669589613
  H        13.0220098452       12.6679600369       10.3376565366
  H        12.6862193400       12.2232146983       12.0591342107
  C        11.5981758744       13.8758045264       11.2752135293
  H        18.1038445668       12.8290799503       11.5964185485
  H        17.5570308191       12.4286900005       13.2220199186
  C        18.8448546280       14.0876559688       13.1253227357
  C        14.1417763395        7.5586346438       15.1974135970
  C        13.8380497783        9.6293084331       16.3078433497
  H        13.8200987968       10.9114871528        0.7254402870
  H        14.7478418516        9.4651062407        1.0393556386
  C        13.7569950513        9.5147213075       -0.8690661845
  H        18.5251561212       17.0748158456       -0.2591709561
  C        19.2636690708       15.8097967876       -1.5278825458
  H        11.8658126898       14.6736554538       10.6058965443
  H        11.4801972809       14.4387309631       12.2256730119
  C        10.3762864758       13.1596718982       10.9037443964
  H        19.0926580529       14.7358565541       12.3046511192
  H        18.5924274886       14.7825201449       13.9181470471
  C        20.0370542943       13.2623656504       13.5816991744
  N        14.5431952962        6.6438753548       14.2266463660
  C        13.9444926419        6.8128379991       16.3912065693
  C        13.4698741426        8.9203097636       17.5244388460
  H        13.6798522287       10.7124966329       16.2416561944
  H        14.0025292615       10.4689396326       -1.3523949346
  H        12.8369597150        9.1506078393       -1.3542709545
  H        14.5884157113        8.9023034722       -1.1494742648
  S        19.7668588007       14.2912722389       -2.1045972718
  C        19.2120032708       16.8930101222       -2.4906838518
  H        10.5889562234       12.3866531201       10.1736177325
  H         9.9093947368       12.6267254704       11.7055716308
  C         9.3005309621       14.0696527641       10.2552861016
  H        20.4844154298       12.8496055829       12.6863490401
  H        19.7320880846       12.5091344701       14.2660688810
  C        21.1109085651       14.1273009410       14.2468957853
  S        14.3134256335        5.1409426690       14.6626277138
  N        14.0675090809        5.4371032268       16.2660578913
  C        13.5723355136        7.4263130544       17.6308282588
  H        13.2835535813        9.5620294310       18.3436886847
  C        19.9970273124       15.1012649566       -3.6896875808
  N        19.6698351876       16.3881449954       -3.6606665228
  O        18.9380281517       18.0323081457       -2.2157400716
  H         8.6460308928       14.6278543038       10.8489677839
  H         9.8020345246       14.7429433724        9.6282208996
  C         8.4880720487       13.1664884901        9.3219495678
  H        20.7370460311       14.7876249341       15.0051748609
  H        21.7900014789       13.4075699385       14.7911811112
  C        22.0041944350       15.0317853828       13.4219166700
  C        13.2603844594        6.6549755518       18.7487631926
  S        20.4595723566       14.2583662445       -5.1729943852
  C        19.6680728799       17.3115618372       -4.8824708287
  H         9.1517922876       12.7587226947        8.4998457891
  H         8.1985653900       12.2227983125        9.9168691858
  C         7.2490221849       13.8205410699        8.7586336403
  H        21.4607793422       15.7230406398       12.7965774280
  H        22.6578289060       14.5645475165       12.6643851624
  C        22.8808671283       15.8594234043       14.4796706710
  H        13.6004853478        5.6645484473       18.7185399306
  C        12.7794540845        6.9762007310       20.0168309056
  H        20.4080691671       16.8870189059       -5.6091102446
  H        20.1033722621       18.2690200422       -4.6632295626
  C        18.3082607271       17.4547660678       -5.5152196184
  H         6.7647630831       13.2944073275        7.9910658142
  H         7.4260847845       14.8530294561        8.4117929097
  C         6.0391906111       13.8808181664        9.7046324997
  H        23.2173591638       15.1351016875       15.1864820899
  H        23.7245943310       16.2361485986       13.9691540766
  C        22.1013750695       17.0253585705       15.0663750300
  S        12.3232531287        8.4319563273       20.7656602021
  C        12.6265769619        5.8001724915       20.9471899682
  H        17.4874756627       17.5785865697       -4.8020775460
  H        18.1976591167       16.4120119472       -5.8290200552
  H        18.3001713982       18.1713081949       -6.3752868377
  H         5.7684602305       12.8353089920        9.8121730622
  H         6.2285920734       14.3968239190       10.6728895665
  H         5.2878904113       14.3834299532        9.1983039938
  H        22.8224834809       17.8327740827       15.3176419877
  H        21.3865494882       17.4120513574       14.3997520677
  H        21.6112367023       16.6508311393       15.9078785453
  C        11.8924167740        7.5320964286       22.1994199306
  N        11.9708993276        6.1682296221       22.0227529657
  O        12.7932340412        4.6649276696       20.6083933994
  S        11.3242011454        8.3037631289       23.7403478607
  C        11.6657752004        5.2128709039       23.0402516182
  H        11.3884558598        4.1743390129       22.7019637813
  H        10.7585621356        5.5373485518       23.6015318053
  C        12.8297432722        4.9911803534       24.0809329010
  H        12.7947695123        3.9652332251       24.4496837105
  H        12.7346933472        5.6197841520       24.9649105899
  H        13.8181530478        5.1445079453       23.6487602002
