352
 i =    77300, time =    77300.000, E =        25.0274065439
  H        10.0347029693        5.8955498360       32.5528305082
  C        11.0934900889        5.9061620851       32.7571117186
  H        11.4100427279        6.8761617602       33.1488747320
  C        11.5849348032        5.5127851037       31.3823091365
  C        11.4159539059        4.8706550950       33.8840819935
  C        10.5690145061        4.8287077931       30.5191625360
  H        12.0458070342        6.4100494954       31.0110279729
  H        12.3664185417        4.7604807024       31.4607805315
  H        10.4678040046        4.5797236719       34.2698224237
  H        12.0182321686        3.9934651484       33.5547095725
  H        11.9355105415        5.4092428625       34.6724556521
  C         9.7969867652        5.7387923703       29.4879749592
  H         9.9490719356        4.2682899202       31.1414217957
  H        10.9554152330        3.9962778453       29.9438920975
  C        10.2521304774        5.4097006497       28.0358029015
  H         8.7489605932        5.5550086876       29.7306086445
  H         9.9369740212        6.7826349038       29.5594095944
  C         9.3238280789        4.4759641717       27.3097852088
  H        11.3079942620        5.1729069450       28.0131276899
  H        10.3195688247        6.3954949805       27.4858109460
  C         8.2364524967        5.2747349838       26.5831325195
  H         9.9791728153        3.9784596257       26.5468736526
  H         8.8562194034        3.7409959005       28.0794819844
  C         7.2045865070        4.3985057252       25.7502999280
  H         7.6440574920        5.8952653691       27.3400954893
  H         8.6542577928        5.9754929598       25.8457674251
  C         6.9115417225        3.0442766903       26.4459609872
  C         7.7073571224        3.7212153402       24.4383352235
  C         5.8860439775        5.2009330293       25.4106748188
  C         7.2128856334        1.9769024200       25.5902046864
  C         6.4118351543        2.6501769781       27.7094685362
  C         7.6886051046        2.4111092158       24.3621245694
  C         8.1297449380        4.5404858515       23.4357623824
  H         5.3558069086        4.7905669537       24.5419292412
  H         6.2117366275        6.1355749608       25.0953573701
  C         4.8341904235        5.4427448926       26.4761294708
  S         6.7830408803        0.4565821011       26.3575857912
  C         6.3396555996        1.2948000790       27.7801459288
  H         6.5482727670        3.4299794251       28.4928254029
  C         8.0190773056        1.8890194208       23.1443643733
  H         8.0147817970        5.6470882211       23.5391577003
  C         8.4395449167        3.9832534356       22.2138954531
  H         4.8301620170        4.6884391531       27.2590177961
  H         5.1593098855        6.3678651510       26.9211724093
  C         3.4141045772        5.4908848274       25.8688908537
  C         6.0333842510        0.6097037888       29.1074541911
  C         8.3181011430        2.6281869391       22.0372469539
  H         7.8564961667        0.8290087842       23.0093091980
  C         8.7695251237        4.4119702716       20.9260171881
  H         3.0897576623        4.4696019820       25.4791497876
  H         3.3569852931        6.1603890264       25.0353331178
  C         2.4259813701        5.9252820548       26.9646824973
  C         5.9670480305       -0.7785442496       29.3270964799
  C         5.6966039503        1.5079988535       30.2167791601
  C         8.6781500962        2.0104482835       20.7444516782
  C         8.9244992812        3.3796829686       20.0232148916
  S         8.9939747040        5.9060970681       20.1298123930
  H         1.4252137469        6.0303283837       26.4585788382
  H         2.6981244823        6.8837673206       27.3651087902
  C         2.1023926633        4.8369656512       28.0397784478
  N         6.2863152317       -1.8055283297       28.3761107749
  C         5.6638013740       -1.3045301662       30.5712150200
  C         5.3588440855        0.9720730211       31.3964545911
  H         5.7090810226        2.6052239894       30.1236029727
  C         7.4619469244        1.1648695853       20.0194070635
  C         9.9507303135        1.1707403057       20.8224079757
  C         9.2421174968        3.7927005095       18.7160191929
  C         9.3517155752        5.1473480454       18.6315175457
  H         1.0974893300        4.4993836659       27.8865006773
  H         2.6925418202        3.9912717411       27.8874338505
  C         2.2867799360        5.4338436248       29.4355633725
  S         6.4680814261       -3.1785232423       29.2499872637
  N         5.8402853142       -2.6938561231       30.6711985419
  C         5.3179088040       -0.4995073285       31.6195811413
  H         5.3686231298        1.6948461681       32.1633665208
  H         7.0733619592        0.3705002309       20.6044939976
  H         7.8781168277        0.5900035527       19.1644570628
  C         6.2621593142        2.1020572708       19.6639239982
  H        10.1024590686        0.5477149368       19.9013132402
  H         9.8155827308        0.4751302962       21.6275413065
  C        11.1901081185        2.0096379902       21.1633945068
  H         9.2792247686        2.9922487398       18.0145077357
  C         9.6967813397        5.9033148273       17.3601207567
  H         1.8239218317        6.4291015383       29.5086866627
  H         3.3725813409        5.4791865158       29.5469530606
  C         1.6615706486        4.4592659957       30.4339808382
  C         5.1530393655       -1.0870288918       32.9428384366
  H         6.4128313708        2.6878554006       18.7475831079
  H         6.2120809016        2.9232760421       20.3930643827
  C         4.9932454410        1.2404689989       19.3684803222
  H        10.9588045429        2.7397434185       21.9743100405
  H        11.4915008863        2.6803032766       20.3770543682
  C        12.4071995681        1.0799011001       21.3160526043
  C         9.7745809750        7.3124528053       17.2358167008
  C         9.9996344998        5.1630701057       16.0930072717
  H         0.9823524900        5.0066676483       31.0105657548
  H         1.0650143084        3.7168133213       29.9488545528
  C         2.6507481986        3.9090178466       31.5290717663
  H         5.2401447639       -2.0968854714       33.0268607855
  C         4.8151896614       -0.5638831195       34.1614457099
  H         4.2566491319        1.7650367352       19.8742363103
  H         5.0568085834        0.2068349546       19.7531551375
  C         4.6865946581        1.2789676779       17.8656155408
  H        12.1539160937        0.3997358148       22.1710317056
  H        12.5556382818        0.4728020245       20.4246609664
  C        13.7232257138        1.8197035310       21.5053391551
  N         9.6081274050        8.2571926316       18.2689517320
  C        10.1795787702        7.9641202753       16.0415461576
  C        10.3741522275        5.8047944463       14.8749973366
  H         9.8712531705        4.1528978788       16.2044953668
  H         3.2859421189        4.7649133577       31.8589557290
  H         2.1738180360        3.5460149215       32.5039221556
  H         3.4235183891        3.1885497223       31.2229696726
  S         4.4200579951        1.0410626259       34.5035168382
  C         4.8082449106       -1.5099054696       35.3822747519
  H         4.5965412663        2.3842296859       17.5450083195
  H         5.6138249162        0.9637627462       17.3956921272
  C         3.5626944083        0.3610752495       17.3590017466
  H        13.5599643942        2.9035722866       21.4837898544
  H        14.4067149396        1.6029399148       20.7292994112
  C        14.4489235523        1.4163814932       22.7113318628
  S         9.6855023423        9.7752514229       17.6598450045
  N        10.2475781404        9.3672688891       16.1350761456
  C        10.5004503420        7.2205588395       14.8609300093
  H        10.5942267169        5.2153832255       13.9766623134
  C         4.3172176711        0.5444131059       36.2105956318
  N         4.4740126623       -0.7573516274       36.4479508898
  O         4.7794231766       -2.7147709958       35.2332476674
  H         3.9600735138       -0.2681656113       16.5513019763
  H         2.7866525907        0.9273975162       16.8929792242
  C         2.7436161189       -0.5547574371       18.4074793231
  H        13.7845184401        1.0032905374       23.4669606457
  H        15.0258319840        0.6347798584       22.4065908838
  C        15.2598266076        2.5349528371       23.3545056074
  C        10.7831878890        7.9095491971       13.6344834608
  S         3.8437057139        1.6914844187       37.5120851132
  C         4.4236495567       -1.3396621839       37.7062129533
  H         3.4567825984       -1.0433063535       19.0965569400
  H         2.0985719432        0.0069374875       19.0657640885
  C         2.0478005619       -1.7532620662       17.7101250491
  H        14.6316238844        3.0477694040       24.0611182973
  H        15.4699194478        3.2301909907       22.5237794812
  C        16.5991047012        2.2280891232       23.9809950729
  H        10.4590340581        8.9270923209       13.7910577795
  C        11.2125009234        7.5803705400       12.4028648438
  H         3.5265563699       -0.9899551477       38.2695673308
  H         4.3933676175       -2.4504045382       37.6734270058
  C         5.6232403184       -1.0503762638       38.5718584813
  H         1.3680709137       -1.3369016323       16.9577622660
  H         1.4214371375       -2.3768792110       18.3570107497
  C         3.0243304160       -2.7716622019       17.0858591815
  H        16.8178592867        2.8824632442       24.8553324551
  H        16.6709525543        1.2906098719       24.4539339218
  C        17.7141539992        2.3998343535       22.9665410236
  S        12.0668110335        6.1815964027       11.8355767298
  C        11.0639944842        8.6751193546       11.4287441459
  H         5.4630491075       -1.1286915872       39.6788562379
  H         6.3794088926       -1.7787050884       38.3498739153
  H         6.0370338757       -0.0935363848       38.3598247261
  H         4.0480174519       -2.8303559426       17.5103764221
  H         3.0431914843       -2.4773104133       16.0851544852
  H         2.6640842331       -3.8030294048       17.1227839631
  H        17.8073646520        3.4574500161       22.6233027936
  H        17.3203742035        1.9186181460       22.0646475783
  H        18.7159331269        1.9007598872       23.1595831235
  C        12.2280433908        7.0992117559       10.2895624577
  N        11.9034425282        8.4139680941       10.3821391835
  O        10.5226765931        9.7759160123       11.6593183013
  S        13.1494400724        6.6171781631        8.9161016036
  C        12.0261427698        9.3731203641        9.2834005444
  H        12.1701472769       10.3501869391        9.5836495566
  H        13.0409618469        9.1516248545        8.8828874050
  C        11.0192762078        9.2018994275        8.2386867647
  H        10.0351210692        9.0145223039        8.6921289063
  H        10.9373085588        9.9376521327        7.4178551687
  H        11.3367829281        8.2725014468        7.6952246752
  H        20.7368083492       10.5708416907        3.7062281756
  C        21.3618289401        9.7188698144        3.5856038678
  H        20.6663392836        8.8561195086        3.6496159417
  C        22.4380509710        9.9569596343        4.7358089044
  C        21.9779190426        9.5948557962        2.2116940443
  C        21.7640127783       10.3652300067        6.0710136712
  H        23.0292709839        9.0832321445        4.9134872457
  H        23.1617062988       10.7515635201        4.4074780239
  H        22.0298143803       10.5417634828        1.6750929780
  H        21.5066331508        8.8724468298        1.5992927747
  H        22.9572784100        9.2163498358        2.4244106523
  C        21.3016015925        9.1771335442        6.7221940332
  H        22.5118905271       10.8061995320        6.7197542913
  H        20.9600222152       11.1233107318        5.9169694801
  C        20.0128193378        9.3063190047        7.5947507525
  H        22.0944175170        8.6006116633        7.3132958914
  H        20.9829628226        8.5914864071        5.8761140026
  C        18.7176610520        9.4471555761        6.7965930559
  H        20.2132720905       10.1113893379        8.3853310060
  H        19.8901378362        8.3596091677        8.1520562528
  C        17.6736784920        9.8097960217        7.8563821577
  H        18.7723254559       10.1330483019        5.9551849530
  H        18.4838078447        8.3925140624        6.3417287928
  C        16.3888497844       10.5088576859        7.2962228023
  H        18.0985519097       10.4467497110        8.6696543377
  H        17.3520067630        8.9477708032        8.4268260028
  C        16.7765431717       11.8385433906        6.6412354370
  C        15.6928945191       11.1991065033        8.3978135482
  C        15.5069807875        9.6233309948        6.4112403891
  C        16.4783706095       12.9523981509        7.3454069579
  C        17.3040156264       12.1848256750        5.3932507195
  C        15.8238129800       12.5547772483        8.4918705575
  C        15.3084019370       10.5311340579        9.5019455134
  H        16.1070064886        9.4246199770        5.5029309461
  H        15.2994577883        8.7294389414        6.9627101518
  C        14.1226824631       10.3520454234        6.1300251410
  S        16.9161182695       14.4368993187        6.5851781852
  C        17.3581514290       13.5644211931        5.1922338256
  H        17.3741538470       11.4024026737        4.6191734232
  C        15.4369026815       13.1479115346        9.6508420345
  H        15.2538637017        9.5058269636        9.4958619069
  C        14.9358159649       11.0886051940       10.6492238723
  H        14.1839498967       11.4047035351        6.1882118273
  H        13.4383942998       10.0675183822        6.9217925830
  C        13.3739949123        9.8290780963        4.9365326090
  C        17.8839794570       14.2265397019        3.8779126790
  C        15.0095535202       12.4514146771       10.7677544305
  H        15.5276975961       14.2328203661        9.8357758388
  C        14.6448824435       10.7258854479       11.9374739705
  H        12.4804348313       10.4660111417        5.0027325353
  H        13.0889134925        8.7753658935        5.0896783749
  C        14.1173601827        9.9885200887        3.6205533114
  C        17.8182023961       15.6693633382        3.6658020729
  C        18.2989327082       13.3990449003        2.7318743856
  C        14.7635302115       13.1098616263       12.0554585489
  C        14.4917563867       11.7735690965       12.8082627998
  S        14.3153020174        9.1331908154       12.5737153437
  H        14.5469802681        9.0111946417        3.4461349154
  H        14.8372351277       10.7820826143        3.7294205053
  C        13.1468252597       10.0791114524        2.4500293050
  N        17.3153322073       16.7228105607        4.6378799359
  C        18.0755381536       16.2702910444        2.3937039240
  C        18.5244705991       14.0354378172        1.4891135408
  H        18.3459685073       12.3253396908        2.7744789549
  C        13.4143963305       13.9247559726       11.8983825499
  C        15.9289714611       14.0465475456       12.6569696081
  C        14.2792562900       11.3177384558       14.1309832592
  C        14.0957195536        9.9343506663       14.1570573441
  H        12.2045143212        9.6415924834        2.6877851988
  H        12.8484136447       11.2097009728        2.5253801170
  C        13.8068223764        9.7922654021        1.0438093211
  S        17.4906207151       18.1487181719        3.8569342809
  N        18.0664244260       17.6727132929        2.4095672617
  C        18.4546375785       15.5268934345        1.2970278083
  H        18.8428260582       13.4269672808        0.6364433727
  H        13.5816687842       14.7774087540       11.2379046080
  H        13.1795557906       14.3254593926       12.8844914047
  C        12.2379317289       13.0016465909       11.4971871554
  H        16.0667640887       14.9646908956       11.9721789999
  H        15.4208347442       14.5142533916       13.5493672141
  C        17.2119452951       13.2929710116       12.9809325085
  H        14.1876485274       12.0451360491       14.9061534355
  C        13.8049755810        9.1717712442       15.4106720200
  H        14.0442512693        8.7199373661        0.8813634478
  H        14.7058313244       10.3473747334        1.1221618485
  C        13.0010517547       10.3688671449       -0.1647706220
  C        18.5638485223       16.1973132192        0.0643066482
  H        12.5572597839       12.3716048465       10.6650588758
  H        11.9241988491       12.3130139380       12.3047993062
  C        11.1115043845       13.8385547824       11.0228151430
  H        17.5424839727       12.8810933513       12.0122200130
  H        17.0146242713       12.4962606636       13.6452764155
  C        18.2420484237       14.3377817388       13.5613536539
  C        13.7843950330        7.7694371235       15.5580788506
  C        13.6323919611        9.9020819904       16.6642901501
  H        12.9364005033       11.4404664904       -0.0889036693
  H        13.6531742342       10.2861465746       -1.0437015498
  C        11.6737172296        9.6411869996       -0.4973891667
  H        18.3786061972       17.2243438760        0.0735983057
  C        18.9286808130       15.7375721402       -1.2368543467
  H        11.4239709955       14.5958831277       10.3180040977
  H        10.7246935609       14.4310872830       11.8349867954
  C         9.9260401635       13.0095454380       10.6860370528
  H        18.6474716006       14.9293747891       12.7507727854
  H        17.7875816738       14.9884195115       14.3282499169
  C        19.3132768061       13.6273625103       14.3056286094
  N        14.1325190525        6.8468172698       14.5732250747
  C        13.3620936702        7.1688498678       16.7198671915
  C        13.3559848149        9.2819362329       17.8933127797
  H        13.6376846516       10.9543422604       16.6478495767
  H        11.1318932939        9.1706911684        0.2961712753
  H        11.8625568803        8.9917386691       -1.3143956372
  H        11.0180126758       10.4669756557       -0.7486547550
  S        19.3358328871       14.1398782869       -1.7586419191
  C        18.8770979015       16.7780501305       -2.3109803158
  H        10.3110170275       12.1077023048       10.0606674573
  H         9.5554227211       12.5937025240       11.5885713514
  C         8.9103896071       13.7157735165       10.0083241288
  H        20.0238751921       13.3089070270       13.5580476663
  H        18.9661494164       12.7546127527       14.7829914946
  C        20.0132253613       14.4795995063       15.3956688667
  S        13.9292623029        5.3182172876       15.1521456643
  N        13.4263498415        5.7521015470       16.5991816271
  C        13.1566287828        7.8561147640       17.9181074463
  H        13.1539244556        9.8538373586       18.7235978777
  C        19.3366348174       14.8231454955       -3.3473522474
  N        19.3055608905       16.1706308750       -3.4505345777
  O        18.3869010955       17.8988341975       -2.1849235108
  H         8.2519132168       14.3130343927       10.6557986033
  H         9.3365881119       14.4949700293        9.3122111321
  C         8.0245744470       12.8471937979        9.0713298206
  H        19.1551844852       14.7020937262       16.0279575351
  H        20.7837312781       13.9016677769       15.9837889076
  C        20.5888944030       15.7371513363       14.7999281493
  C        12.8527859760        7.1117085519       19.1107042402
  S        19.8883509451       13.9743455463       -4.7019178573
  C        19.3297389536       16.8344750452       -4.7510959330
  H         8.5487361704       12.5387444133        8.1245008249
  H         7.7735332051       11.8170479939        9.4692223932
  C         6.7600609684       13.6187168465        8.6448002581
  H        19.8463178189       16.4146046297       14.3678733908
  H        21.2611717187       15.4478148995       14.0218911089
  C        21.4573601069       16.5462114490       15.6859994965
  H        12.9749843846        6.0607064183       19.0267450867
  C        12.3860579472        7.5679353965       20.3867313723
  H        20.0097122198       16.4276528940       -5.4799434524
  H        19.5943281232       17.8706695794       -4.7535462944
  C        17.9421866606       16.7135562568       -5.3941314786
  H         6.4682058900       13.2395804170        7.6525660594
  H         6.9430200983       14.6745902768        8.5687008926
  C         5.7070120873       13.4486213478        9.7060607528
  H        21.0028219952       16.7548316412       16.6179670241
  H        22.4064553135       15.9750115545       15.8675223297
  C        21.8707666857       17.9434818090       15.1501408337
  S        11.9717601502        9.1596723100       20.8015967772
  C        12.1866613510        6.5391104014       21.4410507089
  H        17.9705697967       16.0287495177       -6.3011270928
  H        17.6670984523       17.7223033059       -5.7214333878
  H        17.1732928237       16.4480090044       -4.7204919099
  H         6.1038271097       13.8676653433       10.6457441028
  H         4.7160624220       13.8882158518        9.4550698837
  H         5.4714856484       12.4769399865        9.9913891202
  H        22.8504097269       18.2997941722       15.4953851435
  H        21.9295068374       17.8753909370       14.0517073163
  H        21.0439496819       18.6553943220       15.3196444319
  C        11.4423683310        8.4546734676       22.3577321030
  N        11.5588694257        7.0946053541       22.4429384227
  O        12.5642761043        5.3843522724       21.3183891302
  S        10.8221627419        9.4442010681       23.6587484560
  C        11.2832182670        6.3950846473       23.7025793765
  H        11.2011553815        5.3621780496       23.5847328369
  H        10.2524904318        6.6800376639       24.0767466490
  C        12.3824686831        6.5579795926       24.7400123858
  H        12.1257373509        7.3051800614       25.4067515403
  H        13.3158290031        6.7605523546       24.1531538446
  H        12.5284684004        5.6723940502       25.3151843739
