352
 i =    49300, time =    49300.000, E =        25.2790769710
  H         9.3729359576        6.7345131516       32.2104707421
  C        10.4582356432        6.6729872868       32.3603830257
  H        10.8020037795        7.6784907080       32.4844012556
  C        11.0253749938        5.7040524528       31.2357333061
  C        10.6831371734        5.9159802277       33.7080225873
  C        10.7215857424        6.2813805455       29.8762828844
  H        12.0860336274        5.4494474978       31.3385143427
  H        10.3589746254        4.8110477123       31.2181578978
  H        10.2493999891        6.6020754744       34.4319383649
  H        10.2798116524        4.8910400324       33.8569320925
  H        11.7772421662        5.8692562014       33.7863423076
  C        10.5583088575        5.2253119353       28.8565980796
  H        11.5762689463        6.9649011611       29.7337209044
  H         9.7546233258        6.8113958139       29.9107497851
  C        10.9064307710        5.7628322736       27.4618305558
  H        11.2289425907        4.4755138152       29.1248692963
  H         9.5329935589        4.8881859782       28.8663581886
  C         9.9474925893        5.2085085175       26.3589560783
  H        11.9898081636        5.4438910661       27.3028036453
  H        10.7418954648        6.8405222627       27.4895005659
  C         8.6690218086        5.9769128566       26.0932603420
  H        10.6168456252        5.0728056280       25.5183948039
  H         9.6165104381        4.1972334058       26.5520031205
  C         7.5243336043        5.2714704210       25.4081954808
  H         8.2844280601        6.3366568323       27.0548820882
  H         8.7781331370        6.8754322147       25.4538670042
  C         7.1426271517        3.9369182704       26.1121921708
  C         7.9027058613        4.5228267523       24.1861013776
  C         6.3572320892        6.2211037708       25.0901948383
  C         7.4914185777        2.8487083789       25.3694721084
  C         6.5670291665        3.5618421621       27.3273299893
  C         7.9495302513        3.1753944168       24.1378058970
  C         8.2496760696        5.1596035654       23.0032333212
  H         6.5897008024        6.8508404539       24.2870069867
  H         6.1843650260        6.8968772737       25.9283837203
  C         5.1045635949        5.4786503290       24.7031073900
  S         7.0621226608        1.3684616059       26.0615143132
  C         6.4118205213        2.2456053357       27.4208415747
  H         6.3578808124        4.2886259514       28.0296040030
  C         8.3842960726        2.5116072102       23.0764987714
  H         8.1970196776        6.2458033085       23.1213896950
  C         8.6440957997        4.4983673753       21.9269288565
  H         5.2083687596        4.9689530674       23.7618227677
  H         4.9567931346        4.5826486648       25.3736991394
  C         3.7841269916        6.3086185761       24.6873435494
  C         5.9874089477        1.5138154086       28.7124732842
  C         8.7678383806        3.1464051787       21.9024210129
  H         8.4659290381        1.3823359774       23.1621448915
  C         8.9171683496        4.7888130848       20.5904945683
  H         3.0834750599        5.8567272349       24.0029574298
  H         3.9324066713        7.2976772567       24.3114051978
  C         2.9853337376        6.4719609293       26.0794208728
  C         6.0292277607        0.1272964806       28.9490231902
  C         5.5873400839        2.3298000878       29.8824375640
  C         9.1442021206        2.4107271139       20.7048523593
  C         9.3554699510        3.6739034758       19.8831303712
  S         9.0909187645        6.2402070411       19.7734439891
  H         2.2826260558        7.2781492149       25.9586712033
  H         3.6752758392        6.6699767543       26.8248294023
  C         2.2328695317        5.3031020524       26.5937740937
  N         6.4737721804       -0.7622043846       27.9435669954
  C         5.7217859361       -0.4975185907       30.1644162493
  C         5.3237116117        1.7023219974       31.0956256998
  H         5.6685014412        3.3601746798       29.8575854811
  C         8.0285604420        1.5533582202       20.1057270672
  C        10.4941767883        1.6268389711       20.8229660440
  C         9.7881238739        4.0917408683       18.5876668738
  C         9.6396372260        5.4540727234       18.3497271874
  H         1.4979322262        4.9743657427       25.9236243212
  H         2.7537231832        4.4467263331       26.8368746142
  C         1.5637123301        5.5943478618       27.9326548921
  S         6.3047522163       -2.2590583939       28.6254797244
  N         5.9154501648       -1.8720818548       30.1606224921
  C         5.3857480302        0.2146907235       31.3624987232
  H         4.9628227746        2.3334375976       31.8176325653
  H         7.8313349511        0.7873685068       20.8010572123
  H         8.4037113459        1.0006690618       19.2254266956
  C         6.8398193877        2.3894939629       19.7688022642
  H        10.7774886178        1.1911639450       19.9108686025
  H        10.3488759474        0.8072202353       21.4911995346
  C        11.6643167672        2.4613660788       21.4109661846
  H        10.1574545548        3.3692005347       17.8760076673
  C         9.8984102825        6.2460068879       17.0865674312
  H         0.7466870566        4.9352709173       28.2173273285
  H         0.9019781292        6.4336162568       27.8823216535
  C         2.4945982997        5.6794632572       29.1394382436
  C         5.1598150443       -0.4320744387       32.6525104478
  H         7.0111307681        3.2955247025       19.2054228745
  H         6.3604390822        2.6491917506       20.5715853263
  C         5.7921152954        1.5073171870       18.9672585318
  H        11.4729419126        2.5193970870       22.4445951757
  H        11.7976188818        3.3692484907       20.8587818584
  C        13.0332635521        1.8223040954       21.3904052744
  C         9.9191019354        7.6978184486       17.0182856436
  C        10.4006679519        5.5206903741       15.9122244962
  H         3.0032516638        4.6661172345       29.1436315572
  H         3.3562353160        6.3461823466       29.0264783409
  C         1.8324410713        6.1019820540       30.4968464806
  H         5.2806765519       -1.4958434889       32.6287820596
  C         4.8423569438        0.0337185757       33.9215325750
  H         5.3671078726        0.7713798853       19.6936442808
  H         6.3114695743        0.9791565532       18.1683503368
  C         4.6418400466        2.2367661068       18.3061155045
  H        13.1439923024        1.3122222444       22.3663439808
  H        13.0434490908        1.0798531301       20.5757587088
  C        14.0979746760        2.8416085477       21.3264177430
  N         9.6050246850        8.5839823075       18.0873796606
  C        10.1843878346        8.3472168386       15.8121327094
  C        10.6276226108        6.1900954854       14.6923828524
  H        10.4853338679        4.4783187063       15.8813404658
  H         1.1113742382        5.4855283039       30.9181045308
  H         2.5881944729        6.2691224404       31.3207494032
  H         1.2713705688        7.0006578952       30.2913124098
  S         4.4041734824        1.7070134897       34.3316626029
  C         4.7550699982       -0.8955551140       35.0384510924
  H         4.4758649067        3.2287327856       18.7985085852
  H         5.0657454860        2.6334204677       17.3608330201
  C         3.3302173207        1.4358738913       18.1321905549
  H        13.7113298688        3.7990236927       20.9323981995
  H        14.8110311633        2.4790133034       20.5808479209
  C        14.7297425087        3.0653338823       22.6565975937
  S         9.7316531728       10.0543599244       17.5060310163
  N         9.9359604208        9.6753701992       15.9448027500
  C        10.4349657047        7.6873452156       14.5702568349
  H        11.0434503985        5.6740395964       13.8631063590
  C         4.2552737163        1.0578566208       36.0344955359
  N         4.4300356116       -0.2323803408       36.1756117846
  O         5.0737775593       -2.0925404303       34.9142918820
  H         2.5762141145        1.9810184914       17.5977804493
  H         2.9252012774        1.2171867361       19.1267251803
  C         3.7095948654        0.1669519746       17.3940071789
  H        15.4107733778        3.9068902034       22.5302727858
  H        13.9618065537        3.4002750151       23.4216100431
  C        15.5119905108        1.8632955284       23.1636249418
  C        10.7271521438        8.4265736226       13.4595861042
  S         3.7926743696        1.9815834542       37.4465216371
  C         4.4810959951       -0.9516195570       37.3840528798
  H         4.1395057685        0.5191902127       16.4541268712
  H         4.4826162145       -0.4380515235       17.8739948937
  C         2.5119194851       -0.7544948467       17.1416513071
  H        15.4315932197        1.1043866891       22.4274169814
  H        14.9506638864        1.5180766869       24.0221572951
  C        16.9374506616        2.1293701480       23.6188031057
  H        10.3717132681        9.4351060723       13.5652694672
  C        11.3917397867        8.2412422352       12.2663207383
  H         3.8662078205       -0.6399222070       38.1925190050
  H         4.1033440108       -1.9293052579       37.1673716214
  C         5.9615095016       -1.0074742961       37.8932112592
  H         2.0694665661       -0.2919441010       16.2855516366
  H         1.8687440455       -0.7316530199       18.0171208042
  C         2.9090993840       -2.2078623122       16.7631738060
  H        16.8950776703        2.9556394562       24.3167890631
  H        17.2656126348        1.1772227686       24.1759557383
  C        17.9176303735        2.3837527812       22.4668209160
  S        12.4279747083        6.8880553371       11.8721912848
  C        11.4325318841        9.3196297996       11.1793502497
  H         6.7669413748       -0.9210547974       37.0932987696
  H         6.0578937151       -0.2545484380       38.7169407554
  H         6.0709242035       -1.9472981282       38.2666259576
  H         3.7522068694       -2.1772842769       16.0542497188
  H         1.9943357008       -2.6435245033       16.3052321930
  H         3.0646047384       -2.9658079292       17.5232357190
  H        17.8815169786        1.5128410603       21.7883898684
  H        18.9263290632        2.3562043810       22.8119441684
  H        17.6889211003        3.3282500030       21.8665487153
  C        12.5882565138        7.5824013470       10.2723078688
  N        12.1644003304        8.8687711397       10.1181275140
  O        10.8889080349       10.3891685087       11.3421924687
  S        13.4313693924        6.8491631653        8.9142839259
  C        12.2929857620        9.6640905571        8.8946731362
  H        12.1315013270       10.7047576897        9.1546372801
  H        13.3265729766        9.5869107886        8.4827321575
  C        11.1424395235        9.4542295756        7.9807833787
  H        11.0947471224        8.4008570189        7.6917331297
  H        10.1845145621        9.7377641265        8.3458204145
  H        11.3572012218       10.1235262850        7.1161249195
  H        23.9165449062       10.8617360382        4.2359776763
  C        22.8599343572       10.6508890072        4.0067008334
  H        22.3628649483       11.5790074390        4.1351169247
  C        22.3751198760        9.5659119146        4.9943948661
  C        22.7614285001       10.1157814453        2.6080064397
  C        21.5121275372       10.1742734365        6.1014090690
  H        21.7666171600        8.7513402799        4.5904346716
  H        23.2865278535        9.1325135937        5.3038727119
  H        23.3386095404       10.6619178119        1.8709675593
  H        21.7063535058       10.1750616475        2.4380348700
  H        23.0670339898        9.0929676466        2.5734915999
  C        20.7657009713        9.1095153128        6.7607196501
  H        22.1573144735       10.6072778064        6.9028498761
  H        20.8850913671       11.0426029316        5.6812887226
  C        19.9090009427        9.3427975288        8.0135896340
  H        21.4286765720        8.2415373808        7.0048117463
  H        20.0316736223        8.7104857354        6.1123643897
  C        18.8119679418       10.3445282283        7.7298703187
  H        20.5946819648        9.6182990014        8.7844648570
  H        19.4963119568        8.3716122994        8.2439631772
  C        17.6423124995        9.7784879602        6.9792726493
  H        18.4973027105       10.7389765726        8.6448498634
  H        19.2123836088       11.1973201125        7.1695817123
  C        16.4251932213       10.7117988546        6.8731864270
  H        17.2113951786        8.8725920011        7.4093379268
  H        17.9275553474        9.5742144676        5.9403872644
  C        16.7958564050       12.0084733271        6.1856056242
  C        16.0602429497       11.4537109923        8.0893310660
  C        15.1882230622        9.9513643856        6.2229851005
  C        16.5948510850       13.1394658399        6.9656174016
  C        17.3031377388       12.3263297785        4.8944203294
  C        16.1737419796       12.7740829622        8.2543528076
  C        15.6214570669       10.7849732479        9.2156509709
  H        15.5727163631        9.2913954225        5.4647306943
  H        14.7753217508        9.2851351711        7.0048029527
  C        13.9261115865       10.7627957280        5.7519075829
  S        17.1143624427       14.5990029067        6.1455039765
  C        17.4445188607       13.6263336295        4.6622014194
  H        17.4773802959       11.5130943277        4.1390750585
  C        15.7909056254       13.4020255030        9.3981083252
  H        15.5101860490        9.6935022088        9.2233346204
  C        15.2570253452       11.3826625821       10.4163687837
  H        14.0564316983       11.7973231634        5.4835270815
  H        13.3140458280       10.9610177399        6.5938623696
  C        13.2098828089       10.1276344030        4.6362144017
  C        18.0035866600       14.2558565601        3.4494467942
  C        15.2519595664       12.7133965293       10.4639153476
  H        15.8046916897       14.4827925824        9.2902410262
  C        14.8349161870       10.9515040506       11.6119723684
  H        12.3244383354       10.6519627423        4.4948692700
  H        12.8001018142        9.2060212556        4.9529128543
  C        14.0312762793        9.9552582416        3.3730332039
  C        18.1117936332       15.6494518790        3.1350604108
  C        18.4438994290       13.3881397132        2.3275924897
  C        14.9645694552       13.4340082683       11.7566393522
  C        14.6656720577       12.0361848051       12.4329177012
  S        14.5741624064        9.4175002853       12.3860543038
  H        14.6930376031        9.1182736349        3.4535443526
  H        14.5691807513       10.8662982304        3.3373099068
  C        13.2606178560        9.9801823470        2.0609012427
  N        17.8877042924       16.6713547605        4.0936487527
  C        18.3585638304       16.1353115887        1.8682509151
  C        18.8101546397       13.8425085262        1.0919416536
  H        18.6037017785       12.3536631638        2.4944997271
  C        13.6104865034       14.2463248527       11.8436843344
  C        16.2183707695       14.0911785243       12.4389557511
  C        14.1928296144       11.6624449896       13.7203430205
  C        14.1475963471       10.3188579491       13.9343199785
  H        12.4552065544        9.2338606365        2.0319459963
  H        12.8797979556       11.0174652514        1.9380235705
  C        14.1244958258        9.7422182989        0.7441226212
  S        17.9129052115       18.1384676690        3.3022931809
  N        18.2651626894       17.5454322927        1.8188720214
  C        18.6418875704       15.2665007030        0.7574999340
  H        19.1587218539       13.1517479324        0.3300562063
  H        13.7221630252       15.3199531027       11.4827797546
  H        13.2618157832       14.4341715115       12.8646877578
  C        12.4168869711       13.5021634816       11.1131912028
  H        16.6624570663       14.8288434754       11.6695743955
  H        15.8205154181       14.7059563036       13.2825726532
  C        17.3992688751       13.2377535303       12.8229966012
  H        13.9398413410       12.4625380812       14.3733145153
  C        13.9133849649        9.6038558397       15.1992410494
  H        14.5926538164        8.7693086721        0.9839678666
  H        14.9405334799       10.4384486266        0.7098272817
  C        13.5075892321        9.7397911446       -0.6490948511
  C        18.8328022876       15.9124157612       -0.5018711587
  H        12.6939129978       13.2095566338       10.1176226037
  H        12.1085181243       12.6029307362       11.6410818238
  C        11.1810887294       14.4486918777       11.0856095932
  H        17.7553978336       12.6835846585       11.9251105030
  H        17.1450162649       12.4772914369       13.5892349756
  C        18.5239062583       14.1080881446       13.3486224669
  C        13.8966676729        8.2176265672       15.4292143018
  C        13.5702882316       10.4551101912       16.3789823221
  H        13.6768855336       10.7356761772       -1.0885100759
  H        13.9608978054        9.0266317615       -1.3041377510
  C        12.0712734452        9.5453862274       -0.6770730966
  H        18.6974727860       16.9911743370       -0.4423213231
  C        19.2516781526       15.4481078501       -1.7123279188
  H        11.2208689779       15.3060223540       10.3978667137
  H        11.0135717978       14.7069669443       12.0974634541
  C         9.8431029284       13.7364741061       10.7617950565
  H        18.9624269047       14.6432146499       12.5230110397
  H        18.1072954640       14.8695610008       14.0506426231
  C        19.6574045766       13.4211487697       14.0802624213
  N        14.1196419838        7.2729394713       14.4656768749
  C        13.6564853658        7.6546520251       16.6865285765
  C        13.3371730597        9.8790005694       17.6568271790
  H        13.5678212947       11.5292656324       16.2332563619
  H        11.6947536312        9.7764504356       -1.6813998720
  H        11.4978242753       10.2504039579       -0.0273140419
  H        11.7362049610        8.4714543111       -0.4555890721
  S        19.7886056051       13.8627698904       -2.1887321535
  C        19.1986510363       16.4884400327       -2.8348937682
  H         9.9486987980       12.6917318877       10.7209761050
  H         9.2433152055       13.9300325848       11.6891654064
  C         9.0320346281       14.2914446715        9.5478043971
  H        19.9076568888       12.4802555320       13.4816637467
  H        19.3087541997       13.1630540712       15.1615185258
  C        20.9590580560       14.2168474474       14.1193032566
  S        14.0111089395        5.7941559126       15.1270961491
  N        13.5463366239        6.2514575517       16.6532010363
  C        13.3335344819        8.4533274015       17.8784401947
  H        13.0437916701       10.5041028310       18.5384045358
  C        20.0709057251       14.5666137161       -3.8039596596
  N        19.6541421643       15.8789165106       -3.9454109108
  O        18.7920555786       17.6108107284       -2.5896613936
  H         8.3796269639       15.1111031367        9.7748045441
  H         9.7503021938       14.5994646209        8.7883732337
  C         8.2565655001       13.1269096459        8.9090053760
  H        21.6649773584       13.7216543586       14.7796473920
  H        21.4779578415       14.1144628488       13.1934471917
  C        20.9028364661       15.6873429490       14.5969065538
  C        13.0559657587        7.7518774834       19.0935968110
  S        20.4567475186       13.5743446931       -5.2110043576
  C        19.6142696725       16.6162766332       -5.1869495604
  H         8.8608140158       12.5797245108        8.1693163492
  H         8.1016207319       12.3107756930        9.5861644857
  C         6.9886144694       13.5371347266        8.1861675123
  H        21.1558333706       15.6784118265       15.6724797389
  H        19.9773629035       16.2016984868       14.7382951950
  C        22.0647269708       16.6021585510       14.0902097499
  H        13.4797320148        6.7266365925       19.0965334787
  C        12.4211666692        8.0801197987       20.2990264411
  H        20.0768598030       16.0442094051       -6.0474402086
  H        20.2789120658       17.4555774278       -5.1256971017
  C        18.1862082215       17.0755604356       -5.5717456898
  H         6.6631692363       12.7786032271        7.4223944205
  H         7.0534296427       14.4329755752        7.5573572651
  C         5.8780076102       13.7893588583        9.2801479644
  H        23.0531142121       16.2150786969       14.2989731054
  H        21.9601066427       16.5683317484       13.0269790702
  C        21.8616610808       18.0131200602       14.5732605893
  S        11.5661767625        9.5458725872       20.6831366008
  C        12.4308046214        7.0534554375       21.3666347221
  H        18.0360290162       16.8591676494       -6.6508217357
  H        18.1503535595       18.2095765169       -5.4567141426
  H        17.5177317974       16.5602208862       -4.9003314879
  H         6.0853196765       14.4738582461       10.1243910035
  H         4.9402453726       14.1428824603        8.8850235868
  H         5.5838693676       12.9325885581        9.8342332983
  H        21.0277291766       18.5675477502       14.1474822771
  H        21.8785394917       17.9927514323       15.6618214344
  H        22.7256083732       18.6117064706       14.2753717737
  C        11.4039444314        8.9418803625       22.2797283308
  N        11.8273356718        7.6191519741       22.4719619173
  O        12.9727359725        5.9908392446       21.3146455496
  S        10.8075253376        9.7581653947       23.7299023109
  C        11.8807894776        6.9766225257       23.7916207793
  H        11.8165474202        5.8516291323       23.6479858542
  H        11.0314600860        7.2475155617       24.4210194726
  C        13.1595525875        7.2690934975       24.6180458973
  H        13.5152703959        8.2558529504       24.2544373435
  H        13.8856211922        6.4182854959       24.3850872191
  H        12.9555955466        7.2432902580       25.6944520911
