352
 i =    46300, time =    46300.000, E =        24.8235381441
  H        10.3297288084        7.3321525165       33.7698077637
  C        10.8691922454        6.9787510641       32.9493996739
  H        11.5046847971        7.8141103336       32.7502882788
  C         9.8717523575        6.7831007655       31.7672483457
  C        11.7755908299        5.8779843175       33.3968848588
  C        10.6547221868        6.2835275042       30.5032833538
  H         9.0524980065        6.1396085872       32.1088959164
  H         9.4084837049        7.7140789054       31.5010739751
  H        12.6359629132        6.4716023829       33.8288684968
  H        11.2839237649        5.2845950399       34.1776427661
  H        12.1479669488        5.1407319196       32.6604992980
  C         9.7335436892        6.1220049168       29.2938892176
  H        11.0909122618        5.3421141799       30.6515474010
  H        11.3987108882        6.9868596154       30.2403212129
  C        10.3730475069        5.9069803353       27.8994237916
  H         9.0074379050        5.3300128832       29.5117329309
  H         9.1277714204        6.9921930721       29.2501164064
  C         9.3542378769        5.2768415699       27.0501003511
  H        11.2382795170        5.2059334080       27.9905642706
  H        10.6469919506        6.9555761151       27.5611668919
  C         8.3054845302        6.1558287793       26.3788308071
  H         9.8486607272        4.6524371853       26.3589802450
  H         8.8036879149        4.5054923964       27.7153940623
  C         7.1297904266        5.4533408669       25.6826775711
  H         7.9568172667        6.8520139893       27.2012408094
  H         8.9459981202        6.6332937515       25.6248501521
  C         6.7656401765        4.1138960498       26.3914978680
  C         7.6006822523        4.6936806129       24.4426110623
  C         5.8734381399        6.2869430517       25.3676242592
  C         6.9993134678        3.0104376000       25.5605225444
  C         6.2320023811        3.7299789869       27.6346056780
  C         7.5363102753        3.3683777817       24.3522760450
  C         8.1252093689        5.3986631316       23.3546791501
  H         6.1578296767        6.9571366351       24.5103459542
  H         5.7131858937        6.9983980616       26.0851658039
  C         4.6835250302        5.4743158107       24.8662689615
  S         6.6903190237        1.4965425738       26.2526554202
  C         6.1453569407        2.3206861568       27.7298169365
  H         6.0561772936        4.5376188569       28.3207546307
  C         8.0724878612        2.7805049682       23.2520319550
  H         8.0854592385        6.4236793105       23.4363845015
  C         8.5345025747        4.7622113298       22.2526266921
  H         4.8415576216        5.1124190287       23.8712016125
  H         4.5299542907        4.5761698009       25.4891247464
  C         3.4075803019        6.2981610149       24.6887692064
  C         5.6587859827        1.6818836055       28.9672626961
  C         8.5321633429        3.4329262131       22.1110631482
  H         8.1451576260        1.7344162683       23.2318988719
  C         9.0408965233        5.1698794219       21.0469135691
  H         2.7338459528        5.6688592739       24.1312144325
  H         3.7192302854        7.1491155545       24.0834218783
  C         2.6730134648        6.6694894846       25.8807239915
  C         5.6516220869        0.2797225609       29.2817813389
  C         5.1800254554        2.6146434819       30.0591393960
  C         9.0675331851        2.7664248625       20.9410885734
  C         9.4090084696        4.0788636061       20.2687579320
  S         9.1061575676        6.6701474947       20.1891932354
  H         1.9632348720        7.5368748742       25.6771433538
  H         3.3350199982        6.9088200274       26.6324990544
  C         1.8773972995        5.4021940677       26.3900055523
  N         6.0447348554       -0.7965917299       28.4689930735
  C         5.5614252606       -0.1377159964       30.5967811192
  C         5.0210052410        2.0981970450       31.3896806381
  H         5.0720954053        3.6445685443       29.8496145837
  C         8.1082612939        2.0271068569       20.0240174930
  C        10.3502374677        1.9498267267       21.3693892124
  C         9.8046984192        4.5120506916       18.9634205214
  C         9.6857892868        5.8603087971       18.7415402146
  H         0.9630225727        5.1709391000       25.8439781043
  H         2.3752113060        4.4905586384       26.4019967334
  C         1.4819334636        5.7219375293       27.8723969988
  S         6.2511218601       -2.1602018961       29.3372539739
  N         5.8056339492       -1.5135621316       30.7375200848
  C         5.1920135233        0.6625065366       31.6697615248
  H         4.5918164493        2.7004819040       32.1958196812
  H         7.9097072453        1.0830411365       20.5628751371
  H         8.5217162146        1.7122059109       19.0777224095
  C         6.7599670736        2.7144912070       19.6773166726
  H        10.0183024399        0.9613843616       21.6137687355
  H        10.6919773401        2.4276420145       22.3278128671
  C        11.6266818076        1.9755526198       20.5708279341
  H        10.1319997315        3.8134250498       18.2539680248
  C         9.8478218032        6.5582140896       17.4231052945
  H         0.6649494405        4.9777105965       28.0804578664
  H         1.1020276749        6.7452257466       27.8704504306
  C         2.6185538858        5.5588725658       28.9097518637
  C         5.0946808829        0.0386184302       32.9229079236
  H         7.0982739054        3.5450016226       19.1382924195
  H         6.2111008695        2.9997580712       20.5537756491
  C         5.8643699660        1.7210586580       18.9356696781
  H        12.0351201332        3.0137173837       20.4926747595
  H        11.5123091343        1.7026922778       19.5969165683
  C        12.7919153356        1.1721577583       21.2245525056
  C         9.8909048943        7.9292321522       17.2197380099
  C         9.9342827427        5.7291914654       16.2029083597
  H         3.1233499847        4.5845850116       28.7977696087
  H         3.3990225269        6.2963613552       28.7347123999
  C         2.2432626289        5.8028702711       30.3362700370
  H         5.2397738835       -0.9783835842       32.9931691227
  C         4.8067789932        0.4671896404       34.2176023368
  H         5.3246269009        1.1802741354       19.7040490101
  H         6.3588354376        1.0217630496       18.2569015147
  C         4.7222951066        2.3649986756       18.2531269688
  H        12.5191108802        0.9961358018       22.2541560914
  H        12.8951653203        0.2170625026       20.7512098901
  C        14.1830680518        1.8383238069       21.1742729433
  N         9.6350625706        8.8922291621       18.2154345848
  C        10.1056313789        8.5327997559       15.9741152771
  C        10.2926733750        6.2616972422       14.9724754779
  H         9.9046865361        4.6721259456       16.2535244289
  H         1.2548136973        5.3353351080       30.6057351916
  H         2.9673046590        5.3190482731       30.9857185262
  H         2.1749465648        6.8504103863       30.6041856964
  S         4.3202486325        2.0146698653       34.6767984105
  C         4.8725376261       -0.5194969317       35.3089564979
  H         4.4381465714        3.3000405525       18.7272916683
  H         5.1169267908        2.5988555845       17.2762790823
  C         3.4471248414        1.5083066889       18.0104466301
  H        14.2430705701        2.4491109075       20.2201384064
  H        14.9390680992        1.0640626900       21.1285599099
  C        14.4179673512        2.8422126325       22.3295320797
  S         9.5883341088       10.3674047047       17.5619102379
  N        10.0492976005        9.9374306204       16.0135243137
  C        10.3065361835        7.7579159464       14.7968025762
  H        10.4537953189        5.5367639087       14.2028541442
  C         4.2272026251        1.3818922248       36.3366480936
  N         4.4937908495        0.0795493047       36.4720177123
  O         5.1871727999       -1.7160723354       35.2426943139
  H         2.8031367117        2.2737913648       17.5545355813
  H         2.8810635481        1.2842522759       18.9389791098
  C         3.6060231687        0.3011621888       17.1559305943
  H        14.8258543936        3.7571204833       21.8447418613
  H        13.4818698474        3.1593523856       22.8348039192
  C        15.3283178934        2.3466724982       23.4016244200
  C        10.6036934709        8.4619728644       13.6004205921
  S         3.4265260964        2.1413646078       37.6160160022
  C         4.2907203549       -0.6982388858       37.6578812182
  H         3.9997814230        0.6118356719       16.1293614320
  H         4.2354974822       -0.3889775290       17.6936256898
  C         2.2874998150       -0.3875315947       16.8437600266
  H        15.7913696581        1.3665576623       23.1677238603
  H        14.8398600404        2.2257285461       24.3369289375
  C        16.4569111474        3.4055564785       23.6765677029
  H        10.5433386550        9.5005486609       13.6291580465
  C        11.1985999007        8.0626025516       12.3863856532
  H         3.6768602048       -0.4179598664       38.5221826562
  H         3.7055850272       -1.6086927087       37.3275505836
  C         5.7104228615       -0.9254182156       38.2378801185
  H         2.4527870458       -0.9209073437       15.9328137186
  H         1.4989693538        0.3240069721       16.6002469656
  C         1.8387505741       -1.4263401437       17.9198007644
  H        16.1462904394        4.4733902173       23.6267696960
  H        16.9274373534        3.1945747779       24.6461832799
  C        17.6075583395        3.2661134601       22.6403414181
  S        11.8470060404        6.5096557719       12.0189569368
  C        11.4245143839        9.0840993231       11.3339721934
  H         6.1476006846        0.0699514547       38.5488003271
  H         5.6748657099       -1.5172744370       39.1934169372
  H         6.3327778704       -1.4419813106       37.5762177844
  H         1.7083723180       -1.0272250815       18.8833947648
  H         2.7096237009       -2.1192187102       18.0286334159
  H         0.9495992088       -2.0494473434       17.6288702025
  H        18.2455885519        2.4125119635       22.7745098992
  H        18.2749704729        4.0763119645       22.6973936878
  H        17.1777708183        3.2800946765       21.6224631677
  C        12.2660336573        7.1644655737       10.3590304217
  N        11.9820950514        8.5156957326       10.2548106518
  O        11.0143715734       10.2001603967       11.4663129212
  S        12.7068371336        6.3376472889        8.8932943776
  C        12.0761626069        9.2620697608        9.0072633903
  H        12.0726102262       10.3814387408        9.2811859960
  H        13.0090617265        9.1440398132        8.3884869129
  C        10.7960650051        9.1156583568        8.2068264814
  H         9.9682418831        9.5639917955        8.7879242467
  H        10.8700138171        9.5110194487        7.1809235168
  H        10.3601926196        8.0958200785        8.2451259074
  H        20.9366784521       11.1471472733        3.9121623588
  C        21.4873102997       10.2742920388        3.6255755627
  H        20.6444913173        9.6139933543        3.3820985302
  C        22.1717366318        9.8310364523        4.8787103894
  C        22.5231120113       10.5326068415        2.5165692774
  C        21.4095985277       10.2808470374        6.1415634515
  H        22.2158309049        8.7763368430        4.9559258312
  H        23.2080525149       10.1796698458        4.9858956232
  H        23.1551113058        9.6443406936        2.4438549574
  H        23.1964804530       11.3866974466        2.7411307550
  H        22.0323866673       10.7586112670        1.5809012311
  C        20.5888270969        9.1398634847        6.7944703771
  H        22.1453810446       10.6001989588        6.8451747188
  H        20.9693829601       11.2835463821        6.0852607326
  C        19.9066164254        9.6174523706        8.0655233738
  H        21.1910498574        8.2643436773        7.0507875009
  H        19.7894467717        8.7869960135        6.0995998386
  C        18.7325053717       10.4908228976        7.7429722233
  H        20.5531870710       10.3158444930        8.6864913378
  H        19.6651005660        8.7200378648        8.6659136278
  C        17.4769509781        9.7729636179        7.1900603832
  H        18.4097866749       11.0604198648        8.6770466017
  H        19.1524983438       11.0889440160        6.9686656953
  C        16.2738570385       10.6863775544        7.0387461798
  H        17.0971469407        8.9669639893        7.8778612362
  H        17.7068159688        9.1574404245        6.3141144525
  C        16.5900257000       12.0329812321        6.2934054391
  C        15.8848061951       11.4362489881        8.2425065103
  C        15.1806682702        9.9095105001        6.2911942681
  C        16.4448373451       13.1299061739        7.1047783671
  C        17.0772875088       12.4136856943        5.0376411587
  C        15.9442158828       12.7318482915        8.3512170118
  C        15.3962857926       10.7792743731        9.3428658231
  H        15.7294437751        9.4945599065        5.4414805911
  H        14.8851868117        9.0927396503        7.0035046838
  C        13.9726677754       10.6735269539        5.7605138735
  S        16.9684956728       14.6070636017        6.4936205609
  C        17.3791048554       13.7256489750        4.9646602496
  H        17.2794387946       11.6139994803        4.3570604227
  C        15.5783832278       13.3271101330        9.5246203239
  H        15.2274867902        9.7110891055        9.2993437024
  C        15.1179183670       11.3610408454       10.5448707147
  H        14.3022091472       11.6637069530        5.3396684080
  H        13.2519655521       10.8417114504        6.5555692208
  C        13.0922879259        9.8480024565        4.7434165516
  C        17.8641350550       14.4106969129        3.7415385977
  C        15.2147504771       12.6651724441       10.7049848150
  H        15.6666341962       14.3972210797        9.6752784686
  C        14.7295696443       10.9569926940       11.7869655551
  H        12.0782777640       10.0164111352        5.0390833170
  H        13.2052477069        8.7349680386        4.9639913305
  C        13.4859267040       10.0980962674        3.2442058877
  C        17.9368565353       15.7933975588        3.5194209876
  C        18.3406402534       13.5302943460        2.6249667207
  C        14.8006721537       13.3710981520       11.9348829177
  C        14.5138148735       12.0333655271       12.6644791850
  S        14.5461950600        9.4160835610       12.5519190356
  H        14.3604309383        9.4388901089        3.2501401964
  H        13.7808931274       11.1340552654        3.0764593961
  C        12.3863448023        9.5594747224        2.2900165382
  N        17.4921992990       16.7772035983        4.4288771980
  C        18.2557942397       16.2962070662        2.2452682139
  C        18.6736907396       14.0768750721        1.3801195691
  H        18.4537085262       12.4431159840        2.7869257536
  C        13.5714287156       14.2436639056       11.8042058685
  C        15.9351776266       14.2024308075       12.4918039805
  C        14.0369238696       11.5477309043       13.9358651659
  C        14.0353531147       10.2011069751       14.1075410916
  H        11.9629872827        8.6636567633        2.6977218288
  H        11.5665479068       10.3216199996        2.2319955895
  C        13.0288177883        9.1655658455        0.9720718687
  S        17.4792077099       18.2272741871        3.6573793594
  N        18.1259245213       17.7119613478        2.2182149898
  C        18.6417088441       15.5327367029        1.1123005620
  H        18.9079200028       13.4683588730        0.5478482946
  H        13.9373734414       15.0340443515       11.1205520896
  H        13.3029477056       14.8005253080       12.7087598812
  C        12.4061542369       13.5241062150       11.1341036028
  H        16.1395779742       15.1903278960       12.0196812249
  H        15.5120468823       14.4664983856       13.4558692539
  C        17.2616834725       13.4632305139       12.6669637958
  H        13.8802686089       12.2944943972       14.6752197963
  C        13.8192800761        9.3607732882       15.3391343284
  H        12.1307385049        8.8406163834        0.3845975415
  H        13.7991617962        8.3605093552        1.0269224519
  C        13.6508887017       10.2567520250        0.1120646363
  C        18.8551600624       16.2150605093       -0.1290918875
  H        12.7136880086       13.1304618075       10.1930608587
  H        12.1988584465       12.6757366862       11.8222739218
  C        11.1424232147       14.3047935533       10.9508418760
  H        17.7531675902       13.1026835956       11.7909982354
  H        16.9825897451       12.5354302940       13.2139504783
  C        18.3703110755       14.2501607793       13.4437565910
  C        13.8552663926        7.9573157680       15.3747032165
  C        13.5254942180       10.0495270499       16.6354111247
  H        13.5855070918       11.1608865032        0.7566416247
  H        14.6628957012       10.0540923137       -0.2290126758
  C        12.8551280597       10.4201584289       -1.1809510324
  H        18.5628001149       17.2777570338       -0.1530503835
  C        19.0515287602       15.7727940143       -1.4038492785
  H        11.2094870905       14.9254175992       10.0932711736
  H        11.0354694091       15.0025919591       11.8463117695
  C         9.9505274233       13.2967695293       10.9023406080
  H        18.6409944815       15.1445553728       12.8310379901
  H        17.9835619052       14.6475963269       14.4051440471
  C        19.6406039786       13.3977427359       13.7353494292
  N        14.1461923322        7.0504784380       14.3048793504
  C        13.5302809750        7.2679328193       16.5214498332
  C        13.2553037548        9.3247735581       17.8222817317
  H        13.5188911569       11.0811579723       16.7101239670
  H        11.8858945312       10.7638752368       -0.8825421958
  H        12.7034486686        9.4770066512       -1.7225898029
  H        13.4380692298       11.1426566381       -1.8280057910
  S        19.5834626203       14.1963618049       -1.8470049880
  C        18.8606066291       16.7318491849       -2.4602692105
  H        10.2490493358       12.4191226088       10.4156179174
  H         9.7363876836       12.9751853727       11.8660301898
  C         8.7206217229       13.9457653151       10.3326806429
  H        19.7176735156       12.6426481374       13.0041748284
  H        19.4393591986       12.8876878300       14.6921403324
  C        20.9082400998       14.2645436150       13.7886237916
  S        14.0153932091        5.5576904216       14.8397150583
  N        13.4653177760        5.8574539305       16.3563667900
  C        13.2339584959        7.8795211820       17.7470715517
  H        12.9048042710        9.8089887674       18.6920779577
  C        19.5166871483       14.8113158950       -3.4879055750
  N        19.2937628064       16.1474335595       -3.6334028305
  O        18.4714061864       17.8988210926       -2.2929563907
  H         8.0524621266       14.1161596806       11.1644898266
  H         8.8422657037       14.9250044749        9.9671737717
  C         8.1121323587       13.1267275420        9.1933556323
  H        21.6670523395       13.6170824599       14.1691806184
  H        21.2385798385       14.4785574934       12.7389850642
  C        20.8212249418       15.5256851630       14.5928888962
  C        12.8795378432        7.0951726808       18.9005846836
  S        19.9458316636       13.9906832745       -5.0388803182
  C        19.3450840554       16.8012424271       -4.9618276945
  H         8.7971380756       13.1691049988        8.3716742784
  H         7.7880606639       12.1515869437        9.5069246261
  C         6.7962583677       13.8644561838        8.7146290543
  H        21.3251128171       15.1727759388       15.5185491974
  H        19.8037719097       15.9265259779       14.8041244747
  C        21.6778905599       16.6464450667       14.0100055774
  H        12.7325975609        6.0057444325       18.7581801917
  C        12.5067731495        7.3859544996       20.2093315707
  H        20.1482115626       16.4260609878       -5.6510360330
  H        19.5646112247       17.8475368685       -4.8449735176
  C        17.9983930759       16.8072171072       -5.7019057271
  H         6.4878276838       13.4665985038        7.7288077432
  H         6.9012228745       14.9486076164        8.5669845598
  C         5.6930274017       13.7588760958        9.7277148013
  H        22.7006680207       16.3830728633       13.7890715154
  H        21.3470634908       17.0507542959       13.0369190223
  C        21.7272721969       17.8838523752       15.0216170690
  S        12.3329853445        8.9355623006       20.9364556845
  C        12.3375831391        6.3031910995       21.1806760482
  H        17.2830583683       16.1810254698       -5.1635626404
  H        18.0771377158       16.3153440290       -6.6844242827
  H        17.4541324614       17.7732765904       -5.7902462203
  H         5.3657261693       12.7103689850       10.0508334389
  H         5.8601767837       14.3762476016       10.6292703477
  H         4.7213616050       14.1244315561        9.3372476561
  H        20.7116272405       18.2178889683       15.2345885373
  H        22.1157621708       17.6845030804       16.0500200581
  H        22.3108422366       18.7612184091       14.6983187203
  C        11.8685029023        8.1114827377       22.4638920312
  N        12.0065614486        6.8176138456       22.4087411968
  O        12.5864037557        5.1443546989       20.9536746066
  S        11.5625791129        8.8900712995       24.0519394472
  C        11.9730818225        5.9520545875       23.5827521639
  H        11.6409443533        5.0034488737       23.3076459243
  H        11.2726274173        6.3081179365       24.3036796697
  C        13.3406483162        5.8271969012       24.2911947817
  H        14.0269571691        5.1653787464       23.7788813345
  H        13.0917528038        5.4932624211       25.2979331942
  H        13.8928092024        6.8418535829       24.3937429030
