352
 i =    80500, time =    80500.000, E =        25.1053917556
  H        10.4390519346        7.1906282805       31.2763925863
  C        11.5048284945        7.0285192720       31.4954191372
  H        12.1421609723        7.8762711159       31.7525992999
  C        12.2171902741        6.2884347485       30.3516731771
  C        11.5764619745        6.1792878090       32.7588681887
  C        11.2397706696        5.2641337134       29.7124300861
  H        12.6020560032        6.9122879714       29.5737870716
  H        13.0768654894        5.8041502099       30.7420589337
  H        10.6022218741        6.1766499903       33.1254999601
  H        11.8040613880        5.1551663682       32.4963612360
  H        12.3328735170        6.5483864771       33.4412978634
  C        10.1866495321        5.8474291854       28.7721325642
  H        10.6401044245        4.7874116272       30.4841659826
  H        11.9351987973        4.4816906069       29.2835958234
  C        10.6972343723        5.8794957191       27.2123090251
  H         9.1941445081        5.3574398202       28.7818605477
  H         9.8407825273        6.8408646628       29.0860709437
  C         9.6177734776        5.1545366006       26.3497012049
  H        11.6936065661        5.4953845516       27.1396995454
  H        10.8190743094        6.9470756726       26.8539528092
  C         8.3763058072        5.9157999580       26.0090941306
  H         9.9306647037        4.7573650326       25.3449346711
  H         9.2545284816        4.2325426600       26.8249808287
  C         7.3032415536        5.2068224226       25.1641161520
  H         7.9705067739        6.2328273324       26.8952115692
  H         8.6147501000        6.8231425279       25.4232796394
  C         6.9275376005        3.8861482878       25.8455157595
  C         7.8260937967        4.5293235381       23.9691948238
  C         6.1382859023        6.0448716549       24.6641381928
  C         7.2316779235        2.7665024840       25.0874833791
  C         6.6751997955        3.5503164767       27.1817351353
  C         7.6861199663        3.1692001378       23.8518712301
  C         8.2443780101        5.2728570382       22.8863925420
  H         5.5551732651        5.5006664472       23.8957856723
  H         6.6125954229        6.8916332520       24.0731679243
  C         5.2168046778        6.5081123008       25.7804148844
  S         6.8694576787        1.3174845813       26.0080923434
  C         6.6059696390        2.2252031696       27.4287872822
  H         6.5106718480        4.3541499079       27.8629876727
  C         7.9797381295        2.5473493886       22.6463052294
  H         8.3952568970        6.3611667885       22.8740023914
  C         8.5659072572        4.6515157978       21.7546067473
  H         5.0015369897        5.7421388093       26.5534691823
  H         5.5401435368        7.4075203634       26.2362993565
  C         3.8103915314        6.7434472238       25.2924377778
  C         6.2892206756        1.4424078269       28.7118703558
  C         8.4815628821        3.3409192520       21.5874937797
  H         7.9132137013        1.4671635270       22.5202249561
  C         8.9084391355        5.0933120783       20.5013811327
  H         3.5016981659        5.7483947967       24.7968970521
  H         3.8646896428        7.4720812771       24.6342884434
  C         2.7687328000        6.9980142637       26.3513421321
  C         6.2700252186       -0.0308493814       28.8551932496
  C         5.8577634694        2.2393263695       29.8397462508
  C         8.8772790260        2.6173738312       20.3584293009
  C         9.1305875128        4.0313108882       19.6913061229
  S         9.3218838911        6.6361048892       19.8187078975
  H         1.8779782404        7.3862175473       25.8180644832
  H         3.1216039478        7.9233332413       26.9880064472
  C         2.4555051384        5.8105794159       27.2852486249
  N         6.6954058625       -1.0103905032       27.8895987281
  C         5.9235606274       -0.5816098048       30.0600733311
  C         5.5588050487        1.6854765751       31.0489104454
  H         5.6948838726        3.2814011933       29.7788123437
  C         7.6267736598        1.8640099035       19.7129960375
  C        10.2037995985        1.8117851265       20.3235456410
  C         9.5909651508        4.4808501417       18.4619168862
  C         9.7875319914        5.8323962499       18.3251675797
  H         2.5492942101        4.9473001143       26.6090864407
  H         3.2528710702        5.6434574305       28.0589779667
  C         1.1340649015        5.9664316760       27.9817152531
  S         6.5231309853       -2.4921878115       28.5547769976
  N         5.9963616304       -1.9935264174       30.0252959649
  C         5.5473840268        0.1745872670       31.1741811438
  H         5.5101896835        2.3873520571       31.8768321121
  H         7.2514085294        1.1080661214       20.3491863804
  H         7.9416879954        1.2682592546       18.7831935727
  C         6.4867094252        2.9219190747       19.4479245654
  H        10.6523559249        1.7969127464       19.3362641340
  H        10.1102622837        0.7767021292       20.8722722583
  C        11.3010903002        2.5383677736       21.0704166329
  H         9.9375428219        3.7382516636       17.7937301259
  C        10.1615201327        6.5906536975       17.1153116198
  H         0.3155861003        5.9326198359       27.2886793372
  H         1.1083514217        7.0070991894       28.4201963359
  C         1.0327132768        4.9343925863       29.1400674309
  C         5.2916780420       -0.5278918513       32.4503456880
  H         6.7621204183        3.5115090690       18.5476252081
  H         6.3940605517        3.6337056489       20.2167980765
  C         5.0967893657        2.3559787113       19.2180974112
  H        10.8951085832        2.6746812508       22.1059813889
  H        11.5513281946        3.5131623247       20.5714446926
  C        12.6390148103        1.7510974315       21.1334851356
  C        10.2416580238        7.9998422800       17.0448045959
  C        10.4807495233        5.8319320423       15.9096806632
  H         0.0077060437        4.6518716366       29.2048580289
  H         1.5516164502        4.0110105750       28.7319650851
  C         1.5552961406        5.5290616956       30.4479959123
  H         5.3398568933       -1.6009699771       32.4466615901
  C         4.9065820407       -0.0221435404       33.6654931272
  H         4.2845332702        3.0988140219       19.2535655946
  H         4.7299120784        1.7192367350       20.0217653404
  C         5.0248259870        1.6656167103       17.8726925584
  H        12.5364109944        0.8942598228       21.7769684759
  H        12.8526722966        1.2311894342       20.2246447078
  C        13.8080156905        2.6777249894       21.4841082979
  N         9.9133989836        8.9474173279       18.0016636270
  C        10.5334828975        8.5853764603       15.7873727117
  C        10.8787527079        6.3690871323       14.7294320282
  H        10.2628950118        4.7998400860       15.9766830620
  H         0.8696325624        6.2583323495       30.8659469489
  H         1.7151381440        4.8198642933       31.2558176993
  H         2.5474201495        5.9751229228       30.2670245648
  S         4.4499890916        1.5911560638       34.0887993888
  C         4.8373604546       -0.9914570428       34.7812860951
  H         5.7137392519        2.3116877364       17.2122602595
  H         5.4108848219        0.6960476325       17.9322058567
  C         3.5765749406        1.4715222507       17.3880759313
  H        13.5908597663        3.4379705087       22.2071283445
  H        14.1133531470        3.1016670902       20.5428392279
  C        15.0308923584        1.9697089302       22.0046830450
  S         9.9151118389       10.4266838613       17.2747713349
  N        10.3807969442        9.9646060038       15.7962743799
  C        10.9017267995        7.9068765785       14.6296744378
  H        11.1590781010        5.7141211251       13.9072074028
  C         4.3164264629        0.9800384947       35.7917766979
  N         4.5347999261       -0.3474677915       35.9197848529
  O         5.0830541699       -2.1670872005       34.6607192384
  H         3.4347938490        1.0226649604       16.4376023716
  H         3.1292998886        2.4591983300       17.3723155927
  C         2.8060955057        0.5015950495       18.5035775734
  H        14.8365581829        1.0178121998       22.5516860460
  H        15.4629202953        1.5751599365       21.0636755064
  C        15.8708381734        2.8082518456       22.9018525313
  C        11.1470472220        8.6442659276       13.4160121519
  S         3.8688319771        1.8552073140       37.2926175208
  C         4.6145646934       -1.0259115445       37.2500223009
  H         3.4448274363        0.0780506002       19.3604135369
  H         2.1559244281        1.2337867137       19.0258746032
  C         1.9962699277       -0.6358704257       17.8901703689
  H        15.2608338771        3.1604058739       23.7424770367
  H        16.0936116627        3.7023182354       22.3770504906
  C        17.1173416167        2.0772630816       23.3944885426
  H        10.9302485635        9.7111702286       13.4773055386
  C        11.5707353574        8.3117891612       12.1757407609
  H         3.8343433384       -0.6180261884       37.9177305940
  H         4.3281514668       -2.0050967095       37.2488737381
  C         6.0047247141       -0.9477677024       37.8863030280
  H         1.3574506856       -0.3703918820       17.0743482234
  H         1.3445196818       -0.9123956054       18.7916678696
  C         2.8759805391       -1.7550615164       17.4277645489
  H        17.6785549448        2.6802244237       24.0974995497
  H        16.8880987534        1.1842263032       23.9149647824
  C        18.1099533046        1.6280815014       22.2907418988
  S        12.0606665569        6.7358014236       11.6654046391
  C        11.5595781051        9.3872618095       11.1849900408
  H         6.7711354354       -0.8169440886       37.1835386227
  H         6.1174717718       -0.1333018406       38.5975379739
  H         6.1061852572       -1.9379795952       38.3767336672
  H         3.5896651819       -1.2284690902       16.8130109090
  H         2.2702122693       -2.4130031175       16.7822806058
  H         3.3878029594       -2.1886144769       18.2647819599
  H        18.2175930183        2.4756650424       21.6533479831
  H        17.7214342024        0.7499025129       21.6734847910
  H        19.1597482576        1.4268896625       22.7152030368
  C        12.3944702562        7.5937768267       10.1089646169
  N        12.1811701382        8.9003432964       10.0685873245
  O        11.1340891638       10.5176002080       11.4474824155
  S        13.0932307538        6.8567206230        8.6436248009
  C        12.3128721982        9.7139053404        8.8076178215
  H        12.5754604543       10.7844817390        8.9679217607
  H        13.1886144803        9.3021465554        8.3293667456
  C        11.0478674570        9.7065667147        7.8867824444
  H        10.2458519208       10.2531487043        8.3367030942
  H        11.4343698110       10.3460212751        7.0775515169
  H        10.6037521581        8.7993024664        7.5057808474
  H        21.2877790744       10.4923773650        2.9989611987
  C        21.9127722712        9.5668305505        2.9624189189
  H        21.3106390517        8.6668405962        3.0828416408
  C        22.9030249451        9.4976412372        4.1770148266
  C        22.5592833011        9.3614155625        1.6511189298
  C        22.2078880697        9.6944251206        5.5503939003
  H        23.4528976367        8.5617915566        4.1961144180
  H        23.6161046083       10.3054692615        4.0172907340
  H        23.2259108877       10.1920015701        1.2940371978
  H        21.7745666581        9.2789378393        0.9209341197
  H        23.2264552542        8.5330159848        1.5226639223
  C        21.5283712322        8.4393770045        6.1220825997
  H        22.9294932245       10.1869206467        6.2855789427
  H        21.6000238938       10.6085663485        5.4374524273
  C        20.4665940453        8.7921019693        7.1366780217
  H        22.1832472311        7.6860879640        6.6672588234
  H        21.0304452447        7.9001500263        5.3301102689
  C        19.1681421969        9.2013715078        6.3831360153
  H        20.9185236541        9.4858293126        7.8582347040
  H        20.1982483581        7.9445237468        7.7374753725
  C        18.0519343857        9.5784521240        7.2374329023
  H        19.4734593174       10.0430139843        5.7349034085
  H        18.8583240306        8.4506742788        5.7260295599
  C        16.9184087152       10.6338415246        6.7878086520
  H        18.5799757700       10.0034762011        8.1069834212
  H        17.6206520788        8.7220831442        7.5886647511
  C        17.3778253203       11.9136095325        6.0783293547
  C        16.4237786193       11.4134079140        8.0176915036
  C        15.7714603501        9.9031369051        5.9755792456
  C        17.0335603447       13.0655760116        6.8272013997
  C        17.9149078317       12.2165724007        4.8423997605
  C        16.5109141416       12.7462229261        8.0648554482
  C        15.9448470466       10.7580833592        9.1314813370
  H        16.1952587728        9.5599744342        5.0368370954
  H        15.4888991479        9.0433024600        6.4337385881
  C        14.5183095928       10.7211374764        5.6337473937
  S        17.5222297188       14.4542815133        5.9542349906
  C        18.1563469217       13.5224924295        4.7037069901
  H        18.1591866505       11.3663777723        4.2434250823
  C        16.0097204138       13.3222667256        9.2472725936
  H        15.8863308360        9.6789151676        9.2026269186
  C        15.6518385760       11.3597029730       10.2942161141
  H        14.8518600292       11.5373767664        5.0204113803
  H        14.1394529136       11.0637650737        6.5452623124
  C        13.3955004328        9.9393787324        4.9202796726
  C        18.6632566104       14.0905361629        3.4347077242
  C        15.6564728310       12.6844265728       10.4295550138
  H        16.0803481633       14.3951710508        9.2801846405
  C        15.0766992470       11.0052800610       11.5362967622
  H        12.5546230847       10.6116986710        4.7941020360
  H        13.1404388916        9.0111390739        5.4581804041
  C        13.8407191538        9.5241946376        3.5122953573
  C        18.5448314529       15.4432615447        3.0941177965
  C        18.9846947488       13.1918273403        2.2820022453
  C        15.1644093104       13.4715110079       11.6012483491
  C        14.8401926418       12.1463368881       12.3342107424
  S        14.7060459815        9.5473676282       12.3889109481
  H        14.4190738083        8.5884079155        3.5184249568
  H        14.5724350201       10.2862764687        3.2438889511
  C        12.6603632544        9.5036087691        2.5491797826
  N        18.2546586449       16.5063378374        3.9642091686
  C        18.7254799740       15.9482829626        1.7993227283
  C        19.1667334288       13.6819653077        1.0215961828
  H        19.1202767141       12.1484265239        2.4827863540
  C        13.8934965492       14.3521648906       11.3569530533
  C        16.2273596065       14.3531343807       12.2988976741
  C        14.5156757750       11.7336558162       13.6913870905
  C        14.4081424012       10.4018781471       13.8982499481
  H        11.9787538913        8.7837749728        2.9762788908
  H        12.1321986079       10.4640798716        2.5743120206
  C        12.9409586923        9.1562098973        1.0597967699
  S        18.2312198325       17.9373143953        3.1992371619
  N        18.6159291427       17.3522235468        1.7742490717
  C        19.1970488897       15.1412142406        0.7511342869
  H        19.2562110656       13.0089574072        0.2188534263
  H        14.0379570554       15.3058727704       10.8106138183
  H        13.6345639174       14.5747942882       12.4128459249
  C        12.7652948854       13.6531142853       10.6044489515
  H        16.7078301710       15.0405720071       11.5256286776
  H        15.7210310774       14.9082757287       13.0877665765
  C        17.3807831249       13.5256225435       12.8257514012
  H        14.6062044075       12.4232036080       14.4951062449
  C        14.1905833055        9.6652486194       15.1804015086
  H        12.3637316655        8.3072601353        0.7373573595
  H        13.9376530776        8.7236025553        0.9894017458
  C        12.7063792121       10.3897307066        0.1799385685
  C        19.4590041734       15.8050262723       -0.5096962632
  H        13.0854767254       13.2214440019        9.6352790295
  H        12.4699821671       12.8114183474       11.2706818373
  C        11.5310154494       14.5008943519       10.5886416978
  H        17.7825378982       12.8786437198       12.0551450290
  H        17.0345546545       12.8664856584       13.6038293306
  C        18.4967215750       14.4922310233       13.2208671076
  C        14.0609836604        8.2393531744       15.3056942108
  C        13.9166623121       10.5012417950       16.3822130618
  H        11.6853979660       10.5277225560        0.1799999613
  H        13.2126718070       11.2359957980        0.5782595665
  C        13.3387500322       10.1952315677       -1.1973862361
  H        19.4722064176       16.7937904004       -0.3630717965
  C        19.8790271481       15.3734819084       -1.7631092383
  H        11.7638664871       15.1459755208        9.7126379401
  H        11.3407840105       15.0899835183       11.4702793043
  C        10.3734107790       13.5620047590       10.3304573181
  H        18.6338056716       15.2440842878       12.4635065334
  H        18.2821218427       14.9182647919       14.1675546350
  C        19.8127177359       13.6971039473       13.3137562281
  N        14.3571418172        7.2722409848       14.2767127662
  C        13.7564057719        7.6168115567       16.5284602988
  C        13.6798240520        9.8246503769       17.6088509332
  H        13.8382538529       11.5632823388       16.2677030788
  H        14.3978673076        9.9873371178       -0.9978150491
  H        13.2939877922       11.0559624209       -1.8082273589
  H        12.8895940901        9.2963237241       -1.6723114811
  S        20.1902699345       13.7191066093       -2.2458630732
  C        19.8959207770       16.4345766732       -2.8371059421
  H        10.6656818568       12.7626106550        9.7602611603
  H        10.0236948717       13.2295483950       11.3185624889
  C         9.2443933539       14.3033445967        9.6471797361
  H        19.9867599715       13.0098738113       12.4997891671
  H        19.9922040821       13.2131693746       14.2214668401
  C        21.0134894458       14.6891583506       13.2142394353
  S        14.2408943471        5.8096587418       14.9945148124
  N        13.7262464108        6.2444430584       16.4413506679
  C        13.5008494609        8.3685738875       17.6991083538
  H        13.4928335884       10.3393105451       18.4671581698
  C        20.4289102858       14.4793916630       -3.8551047160
  N        20.2689113287       15.8268676437       -3.9557898227
  O        19.6059984136       17.6059319878       -2.6041592439
  H         8.7925625032       14.8663360878       10.4696829095
  H         9.6353797447       15.0284506245        8.9236302604
  C         8.2787385343       13.2788907388        9.0800865772
  H        21.9083762208       14.0785107171       13.1924550517
  H        20.9337693645       15.1194885044       12.2045127134
  C        21.1054909447       15.6909131648       14.3078810252
  C        13.2544095209        7.5422331387       18.8865178367
  S        21.0961104732       13.5571377230       -5.2191046045
  C        20.3092883344       16.6375916132       -5.2002144135
  H         8.7157306475       12.8914682906        8.2041195620
  H         8.1745376902       12.4433567603        9.7304331766
  C         6.9587754358       13.8544774615        8.7255408553
  H        20.9682378365       15.1214340778       15.2553388524
  H        20.2426662403       16.3149468148       14.3726661299
  C        22.3025298722       16.5906927893       14.2981489003
  H        13.4978803023        6.4311606564       18.7836594715
  C        12.6513927798        7.8096132149       20.0967708180
  H        20.8247208338       16.1474105121       -5.9572243313
  H        20.8447311348       17.6296105901       -5.0645738507
  C        18.9300744030       16.9173825092       -5.7876492369
  H         6.6080067433       13.6661164240        7.7146031356
  H         7.0833790875       14.9154536211        8.8679159015
  C         5.8026241352       13.6306595198        9.7429310553
  H        23.2601306826       16.0161854746       14.1830943914
  H        22.2116134543       17.2459605907       13.4597677541
  C        22.3453115497       17.5610696938       15.4474288101
  S        11.9366727764        9.3047100410       20.5247006593
  C        12.6244823775        6.7419729117       21.1261705388
  H        18.5447825945       17.8594327151       -5.4652659402
  H        18.3099894158       16.0218191957       -5.6876814847
  H        18.9498390856       17.1434206149       -6.8665023740
  H         6.1178478218       13.5947079449       10.7381984614
  H         5.0969289968       14.4377919427        9.7251003327
  H         5.0868010837       12.7838014871        9.5940492249
  H        21.9338314253       18.4819711043       15.1928598466
  H        21.7593322745       17.2627310788       16.3875938758
  H        23.4003526323       17.7100629084       15.8692472334
  C        11.6670672449        8.5058781746       22.0285419366
  N        11.9873490762        7.2249166439       22.1693012841
  O        12.9822868828        5.5968238788       21.0130766310
  S        10.9657146411        9.3562029507       23.4278372345
  C        11.9412543655        6.5012107830       23.3890814074
  H        11.5117826202        5.5115231356       23.2639255496
  H        11.1043165051        6.9243153356       24.0006118163
  C        13.2653407161        6.4138650808       24.1518806235
  H        13.2838027607        6.3461417546       25.2190004360
  H        13.8864209705        7.3240623398       23.9529198863
  H        13.7454914952        5.5702091916       23.7826063202
