352
 i =    29300, time =    29300.000, E =        24.7337359227
  H        11.1406863185        7.1484722769       32.1811690451
  C        11.3137992600        6.0991667300       32.2294995959
  H        12.3459253254        5.8195204290       31.9308832077
  C        10.2854716207        5.3371191004       31.3452476274
  C        11.0942041327        5.7554761811       33.6856631202
  C        10.2604202582        5.9283020322       29.8607424157
  H        10.6200266296        4.2629905996       31.3745926282
  H         9.2671226740        5.5264287038       31.6937320539
  H        10.9305355475        4.7201379724       33.8771257015
  H        11.9753510198        6.1142215594       34.3048595684
  H        10.2019596439        6.2071450391       34.1078993601
  C        10.1729070325        4.8614305509       28.7076685981
  H        11.0680946403        6.6059291925       29.8031441131
  H         9.4339695223        6.6012571387       29.7287706032
  C        10.6937552094        5.3896864423       27.3769568363
  H        10.7934525735        4.0716841765       29.0745481760
  H         9.1632851969        4.4591294928       28.5731845420
  C         9.8647573781        4.8237091655       26.2363561991
  H        11.6603935119        4.8469985524       27.3540553540
  H        11.0610728196        6.3902468281       27.3125692626
  C         8.6223278219        5.6668806205       26.1575009304
  H        10.4110015142        4.9039277245       25.2874257324
  H         9.7427765393        3.7391498264       26.3948062203
  C         7.3812561233        5.0035036338       25.4244088787
  H         8.3805986146        5.8068749576       27.2317734104
  H         8.9045181914        6.6149335037       25.7379440816
  C         7.0254597106        3.6370848509       26.0690625892
  C         7.7262970293        4.3674751985       24.1546392048
  C         6.1650155503        5.9150482974       25.2929170848
  C         7.1420578986        2.6299533052       25.1418293891
  C         6.4841739609        3.2393934017       27.2641162317
  C         7.6924279192        3.0221064361       23.9864296691
  C         8.3557388587        5.0078508332       23.0664793268
  H         6.4957887015        6.8465690752       24.8446125599
  H         5.9431452769        6.2299981610       26.3232376751
  C         4.8817182666        5.3390544671       24.5894466699
  S         6.4569591602        1.1299008756       25.7763399557
  C         6.2103841550        1.8918992973       27.2958149767
  H         6.4539193479        3.9494060677       28.0693266172
  C         8.0208829374        2.4353575837       22.7980407295
  H         8.5060538134        6.0430318179       23.2914155462
  C         8.7149923792        4.4384618859       21.9106902337
  H         5.2795967730        5.0428266609       23.5748188174
  H         4.6385805299        4.3512384150       25.0267382601
  C         3.6112456883        6.1829617703       24.3123219527
  C         5.7464104546        1.1774552794       28.5637183988
  C         8.5208221654        3.1243076272       21.7046721629
  H         7.8203312889        1.3750077964       22.6629955347
  C         9.1687884950        4.8204084445       20.6783161155
  H         3.0779765508        5.7091172585       23.5820743969
  H         3.8624758359        7.0941297939       23.8764656721
  C         2.5256545751        6.4528951807       25.4584855607
  C         5.7565161243       -0.1971084652       28.8537211663
  C         5.3542213180        2.0245255658       29.7037080485
  C         8.9858879006        2.4640792357       20.4422564882
  C         9.3087342759        3.7949900482       19.7978807720
  S         9.5765207692        6.4105909608       19.9373163834
  H         1.7156775387        7.0159780902       25.0098229260
  H         2.9959244677        7.0211110831       26.1915137335
  C         1.9453786989        5.1601849109       26.0302339642
  N         6.1079478406       -1.1812473013       27.9084736329
  C         5.4937576804       -0.7931987679       30.0980061495
  C         5.1021508125        1.5390044124       30.9589290690
  H         5.2503328816        3.0906063383       29.5329971559
  C         7.8942319170        1.7539488820       19.6145531598
  C        10.2272211781        1.6001948194       20.6483636497
  C         9.8572260223        4.1544845726       18.5744634169
  C         9.8487595135        5.5664077691       18.4575793642
  H         1.1909446330        4.8501438748       25.4001946731
  H         2.6539105060        4.3260113678       26.0290067925
  C         1.3951264659        5.4515553511       27.4445577028
  S         6.1041322940       -2.6360410917       28.6366507416
  N         5.7179957476       -2.1298874722       30.1511760152
  C         5.1881499346        0.0788712161       31.2539801713
  H         4.8323880136        2.2656506923       31.6986690041
  H         7.5364419063        0.9051848989       20.1280495246
  H         8.3012752152        1.3932457431       18.6461953121
  C         6.7093650839        2.5979255969       19.1153612831
  H        10.6712608238        1.4115856965       19.6750968304
  H        10.1230523055        0.7058036906       21.1766972517
  C        11.3123402809        2.3924305219       21.4328616673
  H        10.0421093629        3.3651812063       17.8297903489
  C        10.0340600284        6.3528165335       17.1482978809
  H         0.6871644745        4.7844299182       27.8158927740
  H         0.9233701569        6.4264994539       27.5500729567
  C         2.4979714607        5.3925468188       28.4225551933
  C         5.0214867308       -0.4871703281       32.5577495519
  H         6.9398585446        3.3207358381       18.3628981027
  H         6.2981758177        3.1477742014       19.9809113771
  C         5.6182286192        1.5998802032       18.7526262228
  H        10.9871091421        2.5829857914       22.4851610352
  H        11.5702774318        3.3755722090       20.9682545656
  C        12.6608574327        1.6568207662       21.5823094823
  C         9.9732400169        7.7637270113       16.9213301492
  C        10.2709135737        5.5239718069       15.9740269701
  H         3.0771876769        4.4398154778       28.1597035782
  H         3.0903409235        6.2607816763       28.2548352141
  C         2.0878783562        5.4609449817       29.8659978207
  H         5.2015488339       -1.5145397056       32.5840996407
  C         4.7526102377        0.0127229693       33.8208296772
  H         5.2323909687        1.1367470836       19.6922948940
  H         6.0143461379        0.7624949418       18.2748309804
  C         4.4839260060        2.2311702643       17.9167994412
  H        12.6738495285        1.2622640104       22.5631404924
  H        12.8520363076        0.7894421351       20.9647092017
  C        13.8958291958        2.5228511043       21.3033761576
  N         9.6929223979        8.6988668934       17.9193847548
  C        10.2629522049        8.4040475350       15.7298071004
  C        10.6430509091        6.1128177642       14.8042096607
  H        10.1178537218        4.4512223032       16.0103234492
  H         2.8341513897        5.0115557919       30.4714825285
  H         2.0494559214        6.4703492850       30.2553303954
  H         1.0297258799        5.1927977223       30.0098815279
  S         4.4659841639        1.6224585616       34.2653823282
  C         4.7376052044       -0.9283380846       34.9460174039
  H         4.4589377075        3.2781638890       18.2166811409
  H         4.7029473856        2.1621463595       16.8827564582
  C         3.1428612417        1.4396718648       18.0661664911
  H        13.6082904711        3.2759759277       20.4440191600
  H        14.6704625096        1.8480809514       21.0263427733
  C        14.3492823210        3.3294690484       22.4468741521
  S         9.6488346776       10.1818209628       17.2248187878
  N        10.0117301809        9.7312846958       15.7069872428
  C        10.6239553183        7.6243295263       14.6200034840
  H        10.7486308501        5.4958216754       13.9293535026
  C         4.3340644378        1.1008026784       35.9713119923
  N         4.4340237890       -0.2425137312       36.0697779041
  O         4.9276967779       -2.1639811898       34.7604992081
  H         2.3607407046        1.9971535967       17.6197894797
  H         3.0281058240        1.4162103963       19.1282481398
  C         3.1527126170       -0.0125412926       17.4436817447
  H        15.0974002167        4.0457756662       22.1084293527
  H        13.5043265970        3.9071532472       22.8989989260
  C        14.9700513366        2.5591030681       23.6414056108
  C        10.8848724004        8.3975010141       13.3758003794
  S         4.0146031689        2.1081847245       37.3741755292
  C         4.4127841694       -0.9861273155       37.3697702790
  H         2.4614753377       -0.0107369315       16.5435740407
  H         4.2405176498       -0.1834719594       17.1772727202
  C         2.8720684061       -1.1055393853       18.4602823487
  H        14.6062869328        1.5494698568       23.8702264691
  H        14.6206108212        3.0463193580       24.5762959314
  C        16.4680710802        2.5899904018       23.7198359129
  H        10.5530769314        9.4234973014       13.3995626199
  C        11.4642816423        8.0430766996       12.1841794936
  H         3.6689619937       -0.5140948712       38.0230676969
  H         3.9922469362       -2.0223310779       37.3585311911
  C         5.8093843420       -0.9833667353       38.0141683751
  H         3.4889078771       -0.9692526655       19.4056268201
  H         3.1630376816       -2.0255117470       18.0699057097
  C         1.3562911998       -1.0888482794       18.8028724347
  H        16.9803259104        3.5111317683       23.9869585739
  H        16.6743184944        1.9087059243       24.5830524444
  C        17.1258405725        2.0631839030       22.5107196541
  S        11.9474355832        6.4531352903       11.6351952116
  C        11.6009585599        9.1209036927       11.1813431489
  H         6.4036027677       -1.6759526638       37.3976179429
  H         6.2359621513       -0.0231450408       38.0421234748
  H         5.9404962254       -1.4330036643       38.9408043761
  H         0.9906011639       -1.8535588888       19.4838157502
  H         0.6855427627       -1.2040039324       17.9648123755
  H         1.0671523800       -0.2713025095       19.4764631184
  H        17.2933308842        2.8613097333       21.8108826388
  H        16.5503555865        1.3094419098       21.9781802040
  H        18.0032464468        1.4420372780       22.6376818024
  C        12.4183627555        7.2872644591       10.1436162067
  N        12.1208121183        8.6450830651       10.0493715344
  O        11.0730345547       10.2395898044       11.3076298256
  S        13.1577114921        6.4905149359        8.7854016262
  C        12.2018564321        9.4329935947        8.8278170623
  H        12.5495001322       10.4105449826        9.1784055747
  H        13.0000472305        9.1441789926        8.0931063543
  C        10.8747735902        9.5030649261        8.1352487079
  H        11.0065853252        9.4474574982        7.0608205735
  H        10.2560291122        8.7187546752        8.4991529801
  H        10.3776572292       10.4618671319        8.3180114993
  H        21.0145645243       11.7626702329        3.2478610105
  C        21.5397455208       10.7928672397        3.2918843620
  H        20.7490988655       10.0366352771        3.4335422542
  C        22.6009163350       10.7031189521        4.4094098123
  C        22.1878301643       10.3901510950        2.0140073973
  C        22.0078804019       10.9370519695        5.8072240641
  H        23.0646001581        9.6764644597        4.4474019193
  H        23.4571884087       11.3590306871        4.1350785641
  H        22.0732452262       11.2230433120        1.2889079661
  H        21.5989691907        9.5700817700        1.7432553264
  H        23.2501633540       10.1713026223        2.1617325606
  C        21.2730819588        9.6980335939        6.3983610758
  H        22.7934229631       11.1530548931        6.5181674138
  H        21.2992131790       11.7677506036        5.7545860889
  C        20.4819332687       10.0206301319        7.6113309553
  H        22.1062308865        9.0459632683        6.5012387918
  H        20.6477585795        9.2356856015        5.6194453843
  C        19.1930469741       10.9371148813        7.4681842241
  H        21.2423872589       10.4018969034        8.3072473227
  H        20.0155601539        9.1563082271        8.1386942586
  C        17.8545907418       10.1885039919        7.1512363205
  H        18.9326025706       11.3364971968        8.4481393992
  H        19.3815501269       11.7154347968        6.7656620986
  C        16.5375331206       11.0562735498        6.9847193532
  H        17.7203790459        9.4099665042        7.9343120671
  H        18.0476684922        9.7503632919        6.2073792153
  C        16.9295540719       12.3492686911        6.2618366734
  C        16.0817091985       11.7833836346        8.2264775102
  C        15.3554624985       10.3170191142        6.3515631728
  C        16.6880125696       13.5031463383        7.0704550823
  C        17.2770505919       12.6922683490        4.9716178635
  C        16.1361466527       13.1356220306        8.3102973149
  C        15.6247150372       11.1650316378        9.4149778890
  H        15.8328713655        9.7254176933        5.5796574016
  H        14.8948786097        9.6601232214        7.0355216563
  C        14.2398374693       11.2111331067        5.8315533113
  S        17.1008050695       14.9744000981        6.2848162020
  C        17.4180634790       14.0335705931        4.8499328289
  H        17.4733991489       11.9162212848        4.2938612689
  C        15.6559074681       13.8141848813        9.4123487714
  H        15.7264868100       10.0906283192        9.3668663875
  C        15.2615654055       11.7773720835       10.5344864539
  H        14.5561667669       11.9861461005        5.2135605943
  H        13.6428798225       11.6168094791        6.5872620709
  C        13.2510734869       10.4585302189        4.9439334871
  C        17.9175729059       14.7168405551        3.6235328385
  C        15.1809269921       13.1121596197       10.5682624949
  H        15.7392990524       14.9038117621        9.3926698050
  C        14.8511003454       11.3566910785       11.7184328367
  H        12.1918419760       10.6100255170        5.1663137261
  H        13.4117404875        9.4329007147        5.2488934232
  C        13.5857235298       10.7467205776        3.4474707245
  C        17.8408324739       16.1089063978        3.3807034640
  C        18.5246951167       13.9003142540        2.6199940804
  C        14.7934994664       13.7385703002       11.8327421212
  C        14.6112408040       12.4000335581       12.5928853624
  S        14.6426362142        9.8144869328       12.4130701058
  H        14.7114041820       10.8275643618        3.4163520234
  H        13.1865628472       11.7743373034        3.1713004770
  C        13.1143058745        9.5683796144        2.5346559173
  N        17.2966960095       17.1245991356        4.2333722425
  C        18.2366133213       16.6187262469        2.1793786511
  C        18.9895619892       14.4579512635        1.4339031396
  H        18.8135043352       12.8585560080        2.8349005369
  C        13.3899340535       14.5988158062       11.7179916731
  C        15.9737828717       14.5344699877       12.5090866295
  C        14.2638701107       11.9529184528       13.9023372170
  C        14.1951598379       10.6114832909       13.9677823274
  H        13.3530481443        8.6722028470        3.0646406723
  H        12.0166198793        9.4731401711        2.5277282367
  C        13.5197106404        9.6804907162        1.0998747058
  S        17.3738317746       18.6061255453        3.4500522846
  N        17.8377220482       17.9514805624        1.9894739813
  C        18.7257459555       15.8794527533        1.1307765515
  H        19.3770259494       13.8268130896        0.7516530430
  H        13.4573378288       15.5357033747       11.1567294162
  H        13.1132680636       14.9431080595       12.6988882403
  C        12.2424442642       13.7626013230       11.2061599209
  H        16.2476999836       15.3355941955       11.7956673124
  H        15.6138563463       15.1025589719       13.3800568142
  C        17.2253347987       13.6868754618       12.7536144339
  H        14.0654292408       12.6587034096       14.7028472270
  C        13.9628925071        9.7968349049       15.1984998391
  H        13.8408052286        8.7251616705        0.7624769862
  H        14.4102089154       10.3206997600        0.9739436489
  C        12.3516667759       10.1117974610        0.2686213777
  C        18.9436228170       16.4840591148       -0.1316783775
  H        12.3872004620       13.2849852602       10.1745452806
  H        12.0064001037       12.9321445155       11.9780895190
  C        10.9391885021       14.6191215374       11.0720196958
  H        17.6558705468       13.3300511564       11.8042336439
  H        16.9201362629       12.8675571406       13.4559496264
  C        18.3000866430       14.5591067999       13.3334497561
  C        14.0681116384        8.3995037118       15.3468493372
  C        13.4490688555       10.5437439541       16.4456082424
  H        11.6111924711        9.2898097465        0.2378266612
  H        11.9056712594       10.9318663698        0.8122267368
  C        12.6129816576       10.4551048554       -1.1804258216
  H        18.7285007647       17.5487569654       -0.2433537702
  C        19.3271324687       16.0055670075       -1.3835609555
  H        11.1189526744       15.5701776820       10.4878578064
  H        10.6404709235       15.0890944829       12.0602858830
  C         9.9227920136       13.7839341525       10.2496053786
  H        18.5327464040       15.2097143166       12.5451647119
  H        17.6701025161       15.1330855261       14.0470780064
  C        19.4874866855       13.8459099092       13.9710506431
  N        14.3464011972        7.5116135625       14.3098840606
  C        13.6973665452        7.7740357131       16.5276667996
  C        13.1729043658        9.9082104698       17.6136944460
  H        13.3640322111       11.5832866662       16.2977956561
  H        11.6506801955       10.9045444897       -1.5438209003
  H        12.7837778779        9.5669394712       -1.7975564689
  H        13.3076334656       11.2249895371       -1.3978390947
  S        19.5852943592       14.3600105317       -1.7639186850
  C        19.4249278850       16.9191898835       -2.5009490181
  H        10.4712044170       13.4418175650        9.3358581224
  H         9.5590466385       12.9971485540       10.8677438600
  C         8.7329635736       14.5450871749       10.0257997640
  H        19.8274095496       13.0620656152       13.3494354339
  H        19.2320477939       13.3503994321       14.9261391996
  C        20.5985281170       14.8854366324       14.1412847534
  S        14.3908130270        6.0106913437       14.9701105616
  N        13.9048632899        6.4264500063       16.4601573085
  C        13.3950693015        8.4391465124       17.6827053490
  H        12.8244283989       10.4784213257       18.4838684991
  C        19.8750685416       14.9757895121       -3.3864063398
  N        19.8067749850       16.2947850791       -3.5575107555
  O        19.3381312685       18.0931158293       -2.3628438075
  H         8.2476070650       14.7557261283       10.9660355253
  H         8.9166127035       15.4936479246        9.4656538976
  C         7.8293921433       13.8161125580        9.0839765248
  H        21.5692302473       14.4473202067       14.1199503955
  H        20.7083740273       15.3744349473       13.1989472745
  C        20.3018786022       15.9580778506       15.2109072962
  C        13.1126686197        7.6103745253       18.8623535614
  S        20.3223507888       13.9017577469       -4.7183571855
  C        19.8377111560       17.0000171315       -4.8269982870
  H         8.2671438278       13.7496661775        8.1297100266
  H         7.7440699602       12.7687177010        9.4458793375
  C         6.4484988827       14.4649655420        8.8390662704
  H        19.9231192955       15.4507323558       16.1417604428
  H        19.4220845586       16.5922982345       14.8951148087
  C        21.6058486156       16.6224605528       15.5560290308
  H        13.3142073889        6.5742229816       18.8479235340
  C        12.6170595518        7.9200777006       20.1454247865
  H        20.7586056508       16.7734301999       -5.3309237630
  H        19.8834328344       18.1038218507       -4.6661417501
  C        18.6478152784       16.7640131210       -5.7321134274
  H         5.8428168404       13.9866741954        8.0960720979
  H         6.5384575806       15.5217667036        8.6486199373
  C         5.6984108568       14.3244802243       10.1194478273
  H        21.4693947674       17.2135431048       16.4608511315
  H        22.3540699445       15.8587894417       15.7312713180
  C        22.2934912510       17.4755108036       14.5267517349
  S        11.9981681075        9.4959460348       20.7391989067
  C        12.5271121249        6.8455889979       21.1751151897
  H        19.1239734400       16.6173088583       -6.7075516885
  H        17.9801332591       17.5954082468       -5.7026816702
  H        18.2048437584       15.8415643272       -5.5229004268
  H         6.1113948130       15.0007694283       10.8772950116
  H         4.6535474930       14.4858134989        9.9475533526
  H         5.6348896378       13.3722810502       10.6792764810
  H        22.4225027481       18.4682793700       14.8401081624
  H        23.3377393508       17.1274196380       14.4080073223
  H        21.7775588497       17.4974388866       13.5572288956
  C        11.8936794244        8.7406355140       22.3382408315
  N        11.9647067479        7.3539865750       22.2864800236
  O        12.6732158405        5.6208923551       20.9557828045
  S        11.3451332477        9.5567214551       23.8145890988
  C        11.7690791541        6.4749609285       23.4636696564
  H        11.5659418299        5.4208456121       23.1803937057
  H        10.8313723445        6.8361508617       23.9452999271
  C        12.9184186131        6.4982549521       24.4877588219
  H        12.7502421998        7.3169499969       25.1852988635
  H        13.7775236340        6.6334963409       23.9576374998
  H        12.8954923759        5.6002263046       25.0811359826
