352
 i =     5300, time =     5300.000, E =        30.5521249555
  H        11.8381343929        5.0289615449       32.1212586590
  C        10.9280298393        5.6439899427       32.0874883153
  H        10.0767207192        5.0892495087       31.7470157961
  C        10.9548059833        6.7282240592       31.0614560448
  C        10.7806649652        6.0857454728       33.4506093806
  C        11.3692640745        6.3023024172       29.7314371379
  H        10.0903879614        7.3178048061       30.8575825995
  H        11.7301696530        7.4281127548       31.3593132658
  H        11.2626280092        7.0833051506       33.7229808416
  H         9.7540316995        6.1774845553       33.7997930755
  H        11.2114723458        5.2941706745       34.0218580160
  C        10.3513893602        6.3167451316       28.6832462377
  H        11.7607567881        5.3199176429       29.8092576845
  H        12.2702833313        6.9069099325       29.4389520267
  C        10.5874790993        5.7566568145       27.2743865566
  H         9.4893080268        5.7429413709       28.9999324005
  H         9.8960650852        7.2670869792       28.6587692595
  C         9.4206548340        4.9019782454       26.6222395418
  H        11.4415614086        5.0773504308       27.2915194495
  H        10.7408405754        6.6250520377       26.6946740846
  C         8.3064981539        5.8241953708       26.0845482423
  H         9.7357298394        4.3068792569       25.7400423405
  H         9.2025045089        4.1677941053       27.3808687078
  C         7.1603333397        5.1349280792       25.3024395404
  H         8.0088871120        6.3603632651       26.9747004128
  H         8.8057517095        6.5245515747       25.4302341183
  C         6.7616834320        3.8552481978       25.9948978767
  C         7.5685623633        4.3798257994       24.0777645988
  C         5.8476737387        6.0750043145       25.1413434614
  C         7.0835586829        2.6953572770       25.2758641930
  C         6.1676241455        3.5396232866       27.2379101311
  C         7.5627019500        2.9959950614       24.0206406834
  C         8.0862420036        5.0421825374       22.9623049843
  H         6.0835061733        6.8526531885       24.4091224582
  H         5.7783840062        6.4783166768       26.1584822550
  C         4.6052484819        5.3221135416       24.6453171210
  S         6.6112417941        1.2426429474       26.0222913433
  C         6.1435099886        2.1419451089       27.4529983603
  H         5.9408410849        4.2889098814       28.0466021618
  C         8.0144911719        2.4282017499       22.9039141999
  H         8.1963236686        6.1557142879       23.0788008462
  C         8.4892028240        4.4763412935       21.8189107310
  H         4.8359020028        4.8943431340       23.6446241599
  H         4.3141889821        4.5064479955       25.2990496310
  C         3.3380920470        6.2250791413       24.3305731194
  C         5.7970671322        1.4578193643       28.7256180804
  C         8.5246002541        3.1301487733       21.7616995050
  H         8.2426365476        1.3419626362       22.8242944088
  C         8.9581182456        4.7801950384       20.5900368935
  H         2.7298768779        5.7679393587       23.5803171734
  H         3.5664597174        7.2388828056       23.9494648768
  C         2.6146356918        6.3801150968       25.6993143495
  C         5.8313577906        0.0597346570       28.9663125615
  C         5.3599980170        2.2787026263       29.9140021862
  C         8.9253174091        2.3251403732       20.5266036384
  C         9.1651723575        3.6895236390       19.7717145679
  S         9.2009641873        6.3027115023       19.8187497713
  H         1.8974063022        7.2089503637       25.5642911213
  H         3.3008615524        6.6568502468       26.4673702520
  C         1.9028662034        5.1113730018       26.2617969477
  N         6.2290428467       -0.9013429831       28.0166805895
  C         5.5375188191       -0.4813243542       30.1843199073
  C         4.9472598534        1.7450576925       31.0910753985
  H         5.4546955826        3.3074364464       29.8587683954
  C         7.8233189043        1.4888797798       19.8963580375
  C        10.3180043238        1.5467701585       20.7690353465
  C         9.6192834379        4.1269903365       18.5183113583
  C         9.6767873173        5.4698096313       18.3445747528
  H         1.0820660700        4.8556148322       25.5737310557
  H         2.6221043917        4.2863774244       26.4185328697
  C         1.3487058410        5.4776982694       27.7077353994
  S         6.0918492308       -2.3626452956       28.6703682729
  N         5.6166699992       -1.9145181419       30.1691601140
  C         5.0753188091        0.2531111368       31.2992790264
  H         4.7129084657        2.4112758888       32.0170411365
  H         7.4748124192        0.7225521054       20.6352184889
  H         8.2792460755        0.8309497796       19.1709018655
  C         6.6233974122        2.2574247625       19.2997625078
  H        10.7097927584        1.0236313657       19.8982191488
  H        10.0632584960        0.7096575019       21.3494224818
  C        11.4752973076        2.3576618440       21.2331898264
  H         9.7645744027        3.4249226129       17.7779139604
  C         9.9097207919        6.2058971015       17.0361148582
  H         0.7766519374        4.6137247218       27.9643133568
  H         0.7300363498        6.3263953880       27.8344730260
  C         2.4574488554        5.5521040534       28.7607996392
  C         4.9440968165       -0.4252571808       32.5583024466
  H         6.8967491289        2.9636659089       18.5545354461
  H         6.2236708709        2.7042439683       20.1796535195
  C         5.5239231676        1.3654427559       18.8023151608
  H        11.2063816247        3.1205329833       21.8382567637
  H        11.8371606736        2.9370447322       20.4244984729
  C        12.6338811507        1.5386339631       21.8433890503
  C        10.0187698422        7.6292860953       16.8573211981
  C        10.1196596036        5.4742171833       15.6756853785
  H         3.0455884508        4.6449254827       28.6759594232
  H         3.1559702711        6.2626693762       28.5731089018
  C         1.9656504117        5.7199942265       30.1979490569
  H         5.2313117449       -1.4405561346       32.6222649287
  C         4.6023954968        0.0788639385       33.7956534181
  H         5.3946554976        0.6022749118       19.5697488971
  H         5.9426008629        0.8497450083       17.9480845588
  C         4.2583144561        2.1565704941       18.3313090567
  H        12.2959643939        0.8437070073       22.5620960815
  H        13.0863487286        1.0456343343       20.9931258214
  C        13.6421591801        2.4226640105       22.5008696233
  N         9.6125316142        8.4511835988       17.9456685710
  C        10.3499832845        8.2806788546       15.6301721776
  C        10.3545897835        6.1952621846       14.5465259169
  H        10.0210661701        4.4240973917       15.5548059201
  H         2.8337706607        5.8703363949       30.7997187075
  H         1.5671971098        6.7854056602       30.2364154605
  H         1.2840246875        4.9599221045       30.7398650362
  S         4.2097343858        1.6941735762       34.2682998011
  C         4.5828184712       -0.8927305395       34.8900351263
  H         4.2056350862        3.1321580807       18.7944816678
  H         4.3094263840        2.4343457868       17.2969361869
  C         3.0605566707        1.2751630853       18.4016940619
  H        13.2642374279        2.7937504836       23.4864246906
  H        13.8906096091        3.3709165208       21.9886776886
  C        15.0649921804        1.7230935174       22.6734651181
  S         9.9487520384        9.9017258571       17.4337386443
  N        10.1097521109        9.6497396253       15.8257633149
  C        10.4961139034        7.6460585914       14.4558959907
  H        10.3796594704        5.6655709983       13.6335988001
  C         4.1683017252        1.1326291054       35.9106707481
  N         4.3246073695       -0.1982247018       36.0473127734
  O         4.6133385334       -2.1341536201       34.7937542830
  H         2.0740630500        1.7654413198       18.4772787240
  H         3.1556030911        0.7580713208       19.3688310964
  C         2.9803934988        0.3089531937       17.2804999974
  H        14.9351000151        0.7578654912       23.1573169767
  H        15.4053313246        1.3338569865       21.6810770621
  C        16.1090752440        2.5904943571       23.2489004053
  C        10.8891583097        8.4240186356       13.3495348835
  S         3.8775638409        2.1313500804       37.3402412868
  C         4.2333212324       -0.9094631010       37.3225599547
  H         2.7887700153        0.8040083926       16.4017380302
  H         3.9632813305       -0.1162586592       17.1397090732
  C         1.8745761974       -0.7139449027       17.6319883367
  H        15.9255039574        2.8294746777       24.2572868710
  H        16.3449240837        3.5771012017       22.8768754174
  C        17.5135509432        1.8855895574       23.3235690455
  H        10.4579026241        9.4258868244       13.4412858877
  C        11.5261531677        8.0546499723       12.2526832537
  H         3.5056655779       -0.3867899678       37.8665735925
  H         3.8477044682       -1.9200940988       37.2162958759
  C         5.6134494783       -0.9440019756       37.9815543318
  H         1.0040946869       -0.6378936888       16.9639585377
  H         1.3270228214       -0.3002086663       18.5568086703
  C         2.3886257667       -2.1729263199       17.7004068676
  H        18.0973254678        2.4311617391       24.0743914242
  H        17.4041664693        0.8924036873       23.7801594091
  C        18.3748334658        2.1434668731       22.1391141207
  S        12.1117062931        6.5615687210       11.7554082321
  C        11.7246359636        9.2500513069       11.4020397105
  H         5.5532697670       -1.1658215319       39.0884214165
  H         6.3073426697       -1.6689346478       37.5153359966
  H         5.9846160456        0.0740660004       37.8604071598
  H         1.5946705616       -2.8976823331       17.8643845683
  H         3.1074092817       -2.1679501468       18.4067933271
  H         2.8533715085       -2.4821407584       16.7930588758
  H        19.0482006940        3.0123215524       22.3437185368
  H        17.9557694479        2.6134181863       21.2655945601
  H        19.0978997201        1.3929373733       21.9226255548
  C        12.5733949484        7.4700465964       10.3103797445
  N        12.3229166443        8.7806427104       10.2657627047
  O        11.2678937762       10.4123274364       11.5800306880
  S        13.2196418938        6.7264976209        8.8506305645
  C        12.5390678450        9.5631056769        9.0835218556
  H        12.5892918902       10.6259416325        9.3811025097
  H        13.5205088361        9.3707348210        8.4435113093
  C        11.2663225838        9.4393540709        8.2633808893
  H        10.4348632999        9.8501961762        8.8196920174
  H        11.4222761149        9.9565020779        7.3716945069
  H        10.8932493193        8.4674374865        8.1247783608
  H        20.9243522751       10.5165261859        3.9743590784
  C        21.7550929878        9.8228540002        3.8392429822
  H        21.3573903204        8.8711253001        4.0999643455
  C        22.6318125660       10.3779618142        4.9574220862
  C        22.1478246046       10.0507827801        2.3497684211
  C        21.8341466928       10.7609999676        6.1831049886
  H        23.3605098625        9.6869023886        5.2202599782
  H        23.3189310335       11.2027637628        4.7458771865
  H        21.3410837680       10.6135460112        1.7680936280
  H        22.5259300974        9.1409861958        1.8038882011
  H        23.0030418601       10.7600252556        2.3202580830
  C        21.2756210616        9.5644094785        6.9098680897
  H        22.4053095108       11.3478779220        6.8678996631
  H        20.9501718217       11.3683730650        5.8699281627
  C        20.6698426728        9.8384294285        8.1331752786
  H        22.1491362817        8.9296575663        7.1449201049
  H        20.6726974101        8.7956338645        6.3661176856
  C        19.3339069512       10.4822815715        8.0134098739
  H        21.2438962671       10.6422035654        8.6853354627
  H        20.6368310574        8.9269481809        8.7545309597
  C        18.0572246407        9.7250564813        7.3896373984
  H        19.0174010854       10.8880447769        8.9678949611
  H        19.4752586596       11.4242253227        7.4334001633
  C        16.8360235616       10.6921761950        7.0737930957
  H        17.6926236730        9.0154556431        8.1269101659
  H        18.3713498838        9.1514544315        6.6411156214
  C        17.1893450847       12.1092142952        6.4455341855
  C        16.4081508203       11.3799548119        8.3305366329
  C        15.6505189712        9.9185343785        6.4692335329
  C        16.8498342995       13.1738069920        7.3022317508
  C        17.5429425030       12.5870871472        5.1739990586
  C        16.2854596644       12.7397288673        8.4964679894
  C        15.9298302195       10.7476932412        9.4958919470
  H        15.8990224388        9.3981320365        5.6100498889
  H        15.3922112687        9.1956107121        7.2604215189
  C        14.4443221751       10.8133315862        6.0446805418
  S        17.1707545092       14.7610912959        6.5729573307
  C        17.7174903604       13.9589254116        5.1652785649
  H        17.5952493200       11.8204612123        4.3700536841
  C        15.8131662690       13.3165180859        9.6140500450
  H        16.0064978102        9.6683824307        9.4067950230
  C        15.4785972952       11.3348963370       10.6218577583
  H        14.8153838699       11.7004985659        5.5439331255
  H        13.9093054911       11.2321775724        6.8754754992
  C        13.4472546662       10.0725733728        5.1743764861
  C        18.1177470046       14.7612805592        3.8963115536
  C        15.3362223410       12.6357336657       10.7380449867
  H        15.6412891929       14.4243194893        9.6682228329
  C        15.0988871484       10.8708966697       11.9013192532
  H        12.5703142392       10.6462447065        5.0124457822
  H        13.2026757970        9.0993869735        5.5734162855
  C        13.9309455689        9.8695698348        3.7302057460
  C        18.1665826670       16.1833045780        3.6044397262
  C        18.4546032064       13.9751654155        2.6772683194
  C        14.9553040707       13.3635470183       11.9687205935
  C        14.6371973260       11.9897478286       12.6317930361
  S        14.9294426578        9.3841336809       12.7608386170
  H        14.2801156999        8.9259023757        3.5895545925
  H        14.7417108405       10.5156535947        3.4323218264
  C        12.9747782224        9.9800598639        2.6866021472
  N        17.8406932235       17.1129895977        4.5986097933
  C        18.4864166711       16.7264516229        2.3731383019
  C        18.7106077610       14.5691850827        1.4243497483
  H        18.4980138728       12.9148283006        2.6321213122
  C        13.7088620057       14.2651816946       11.7896371216
  C        16.1361026543       14.1018034182       12.6558812175
  C        14.0879975786       11.5336946362       13.8820679756
  C        14.1964614382       10.1948708158       14.0496537319
  H        12.4920837372        9.0438813525        2.7604346680
  H        12.1573117803       10.6341509500        2.7185122160
  C        13.5538509218       10.1233751116        1.3070624144
  S        18.0022406347       18.6496843578        3.9723108545
  N        18.4811565315       18.1507568510        2.4947459367
  C        18.7632421272       16.0494392715        1.1904711092
  H        18.9657394179       13.9547270520        0.5836779716
  H        13.8363145096       14.9097047597       10.8916952913
  H        13.6864626226       14.9652461917       12.6147386429
  C        12.4069459896       13.5323477380       11.7201764110
  H        16.4651691554       15.0148591587       12.1490235686
  H        15.7403305692       14.4707311457       13.5793776382
  C        17.3716784612       13.3022897942       13.0570418388
  H        13.7224870002       12.2062952918       14.5974423039
  C        13.9202878392        9.4333448263       15.3440483822
  H        14.5211903748        9.6406412159        1.2098537569
  H        13.7600989152       11.1991555578        1.1455800399
  C        12.6216756780        9.6227305927        0.1832589055
  C        19.0903580444       16.7635533458       -0.0468055009
  H        12.5800665731       12.6670230431       11.0858515824
  H        12.0886832251       13.2403443427       12.7040207614
  C        11.3177556775       14.3639765367       11.0979417762
  H        17.8022382149       13.0085483380       12.0902454136
  H        17.2014717323       12.3364361817       13.5315368628
  C        18.4994726378       14.1324039868       13.7427308283
  C        13.8179183465        8.0446098016       15.5386050754
  C        13.5716504530       10.1838570456       16.5653035955
  H        12.5005142167        8.5040779662        0.0532725680
  H        11.6245264490        9.9226932311        0.4793004868
  C        12.8393053517       10.5498892889       -1.0362295016
  H        18.8287891577       17.7916404544        0.0442481225
  C        19.2517289117       16.3638259159       -1.4050990757
  H        11.6161081000       14.8839027128       10.1615506331
  H        10.9718538233       15.1357049479       11.8054195418
  C        10.2150556034       13.3913339118       10.6312486808
  H        18.7817004750       15.0280169075       13.0716582979
  H        18.2650801278       14.5032881199       14.7159372482
  C        19.7914764066       13.3346564072       13.9178557890
  N        14.0674031554        7.1211729253       14.5658887081
  C        13.5521592409        7.4560363627       16.7669775905
  C        13.4552802628        9.5947782083       17.8127124473
  H        13.4282874064       11.2216433329       16.4324585129
  H        12.7910066943       10.0008936416       -1.9286168179
  H        13.8215206615       10.9519706842       -1.1113633274
  H        12.0197818740       11.3068144946       -1.0354995664
  S        19.4553145101       14.7597881054       -1.9256570206
  C        19.2397909635       17.3913875931       -2.4592417941
  H        10.6653903932       12.7648135223        9.9460845075
  H        10.0588641340       12.8178494432       11.5291864625
  C         8.9737262756       14.2106802211       10.2070406762
  H        19.8414998801       12.4414727330       13.2035096549
  H        19.8337049482       12.9385404012       14.9016883822
  C        20.9659486754       14.2475483474       13.6083462636
  S        13.7242146051        5.6216764607       15.1267292355
  N        13.3488641614        6.1026954495       16.6211314783
  C        13.2831818539        8.1715351290       17.9393843587
  H        13.1484336511       10.2535207218       18.6391324537
  C        19.4911350098       15.4592418917       -3.5671259737
  N        19.4897858328       16.7972214982       -3.6142198104
  O        19.0954715779       18.5711378310       -2.1749701485
  H         8.4627262091       14.5649787739       11.0806733222
  H         9.2716850282       15.1652098930        9.7648463544
  C         8.0233811125       13.3398654907        9.3857896403
  H        21.8707377977       13.6912219660       13.4256491507
  H        20.9337172436       14.8669770889       12.6861508631
  C        21.2626642779       15.3230147606       14.7914080285
  C        13.0189516067        7.4879013934       19.0924702123
  S        19.8942506695       14.3668364915       -4.9472073192
  C        19.4249896375       17.4851469498       -4.8749264403
  H         8.4642700280       13.0886539394        8.3622818346
  H         7.6817009190       12.3502685112        9.8136926271
  C         6.7599780660       14.0363145709        8.9428430108
  H        21.6622381037       14.7710561512       15.5726282223
  H        20.3846246324       15.9072260154       15.1310595254
  C        22.4973758407       16.2073706608       14.3393757575
  H        13.5047778008        6.4811185116       19.0706576756
  C        12.4152067805        7.8806758752       20.2246331502
  H        20.0621538564       16.9266874818       -5.6097732018
  H        19.8088589696       18.5340736615       -4.8527987510
  C        17.9110312846       17.5964869992       -5.4039227483
  H         6.5067914264       13.7360679647        7.9831274281
  H         6.8955158670       15.0859649901        8.7425611641
  C         5.5494260127       13.8908937999        9.7865317790
  H        23.3042234665       16.3032457561       15.1478703386
  H        22.8653476138       15.8578637209       13.4359553296
  C        21.9478741237       17.5913560781       13.9037850508
  S        11.8246458600        9.4204006116       20.6922100520
  C        12.3108199791        6.8881895348       21.2737036011
  H        17.1711223168       18.1797192004       -4.7215057467
  H        17.5000134469       16.5631661225       -5.4940291338
  H        17.8356162461       18.1156723052       -6.3856851832
  H         5.7557827140       14.2246344602       10.8288011914
  H         4.7261725173       14.4185223835        9.4025021435
  H         5.5722780810       12.7960767185        9.7647520890
  H        21.6783213432       18.2368894935       14.6882935518
  H        22.8304788008       18.2265983705       13.4246651884
  H        21.2077613409       17.5632714139       13.1552453216
  C        11.5175271998        8.6591691607       22.2598377166
  N        11.6320623319        7.3749885143       22.3407326338
  O        12.7745356810        5.7499577189       21.2212108868
  S        10.8754184901        9.5823544527       23.6311762942
  C        11.4204878011        6.5956553312       23.5459838546
  H        11.2502177673        5.5129803777       23.1932516857
  H        10.4764429288        7.0147143450       24.0171118144
  C        12.6553070131        6.5194422245       24.4773432724
  H        13.4781161466        6.0419042502       23.8889148698
  H        12.3831671841        5.9184329617       25.3317411022
  H        12.9587404075        7.4302773674       24.7957150242
