352
 i =    55700, time =    55700.000, E =        25.3457707777
  H        11.3423343783        5.2693136985       32.4269667232
  C        10.4809399511        5.8766036544       32.2291608980
  H         9.7168999545        5.1490343861       31.9857067054
  C        10.6845918972        6.8295950246       31.0697865028
  C        10.0763474453        6.6425156280       33.5086838804
  C        11.2210791949        6.0085975458       29.8965506351
  H         9.7608537534        7.3141405093       30.7520030818
  H        11.3784750864        7.6363953586       31.2606543082
  H         9.0906833835        7.1128124758       33.4649535649
  H        10.1940504836        6.0847080964       34.4718184112
  H        10.7452162081        7.4656418607       33.4881130881
  C        10.1429650922        5.6002641347       28.8879642828
  H        11.7961822639        5.1036992192       30.2024411044
  H        11.9257448975        6.6965801503       29.3466021793
  C        10.7207092457        5.4670332199       27.4515530049
  H         9.6204191617        4.6409104559       29.1461582907
  H         9.3736400797        6.3687122358       28.8938497892
  C         9.8153080125        4.6046977130       26.5660161161
  H        11.7097142664        5.0499237492       27.5882531897
  H        10.9327226077        6.3631747165       26.8274235748
  C         8.6209644370        5.4437126818       26.1414081445
  H        10.4502942397        4.2050675957       25.7420269056
  H         9.4647247467        3.7621509038       27.1602961330
  C         7.4569528452        4.7354370381       25.4795784784
  H         8.2467176738        5.9877381786       26.9977373795
  H         9.0148260102        6.3123008250       25.5208774608
  C         7.0670235561        3.4173536299       26.1014217972
  C         7.9330257323        4.0061846733       24.2032709001
  C         6.1830602268        5.5287091761       25.4074064312
  C         7.2293273616        2.3236496594       25.2987036216
  C         6.5072463718        3.0894947854       27.3463531791
  C         7.8443586855        2.6761209254       24.1013872325
  C         8.2912987152        4.6333310348       22.9961123755
  H         6.4164769922        6.4484268972       24.8821278541
  H         5.9714640562        5.6630284575       26.4363704463
  C         4.9829469191        4.8166177045       24.7131118973
  S         6.7241619164        0.8687142855       26.0978888467
  C         6.2811052612        1.7607397546       27.5353882862
  H         6.3557092414        3.8221787749       28.0750792695
  C         8.2212689432        2.0050302581       22.9821897784
  H         8.2187234821        5.7178480244       22.8642851077
  C         8.6699720101        3.9833506876       21.9006249820
  H         5.1859220320        4.5465005567       23.6656629536
  H         4.7009878232        3.9566118168       25.2537785185
  C         3.6977127334        5.6285537398       24.6896169925
  C         5.7626147051        1.0642419465       28.7784202169
  C         8.6855073782        2.6331648467       21.8421679276
  H         8.1475079941        0.9368192510       22.9625980313
  C         9.0928686249        4.3748499051       20.6542430766
  H         3.0388744796        4.9652212533       24.1953567909
  H         3.8401023276        6.4898623336       24.0757143055
  C         3.0822788471        5.9957856141       26.0829219164
  C         5.9159409054       -0.3316409266       29.0174529191
  C         5.3073929164        1.9427899993       29.8576694240
  C         8.9848878611        1.9723109329       20.5458888939
  C         9.2497615229        3.3039729579       19.8206962602
  S         9.4939246141        5.8663430263       20.0272557885
  H         2.1823690248        6.6259467887       25.9992115203
  H         3.8666710853        6.5977708717       26.6056241471
  C         2.6679039055        4.7689578516       26.9232619104
  N         6.2412089854       -1.3666368050       28.0986627983
  C         5.7026660609       -0.8436599206       30.2912686253
  C         4.9734237399        1.4103824460       31.0892914682
  H         5.1507496634        3.0388019988       29.7730170138
  C         7.8844726512        1.0915455867       19.8494841275
  C        10.3100759145        1.2344101517       20.6645984572
  C         9.7625755860        3.6464524802       18.5367486026
  C         9.7949836935        5.0172505551       18.4826043460
  H         2.1516825135        4.0019982336       26.3225065041
  H         3.4575750840        4.1219596670       27.3142870174
  C         1.8032888264        5.1018550110       28.1575038699
  S         6.3855618820       -2.7620063527       28.9948360055
  N         6.0258547182       -2.1908145916       30.4635067465
  C         5.2488973749       -0.0255634039       31.3681505237
  H         4.6086889140        2.0022575690       31.8296269568
  H         7.9112606098        0.1069207239       20.2528214249
  H         8.2893616779        1.1070601440       18.8638646817
  C         6.4175240749        1.6364634191       19.9420741687
  H        10.5421449452        0.6327068383       19.7411542072
  H        10.0652585445        0.6072092256       21.5942700189
  C        11.5882610896        1.9741153021       20.9676202567
  H         9.8567706385        2.9031303970       17.7806503346
  C        10.0672732678        5.7685226810       17.2050628713
  H         1.0126458029        4.3576439196       28.4201362739
  H         1.3012036175        6.0428608306       27.8497240279
  C         2.5016454761        5.3511137613       29.4807601949
  C         5.0850341692       -0.5498829175       32.6537844631
  H         6.3330417715        2.3700646437       20.7359024389
  H         5.9601432445        0.7486220838       20.2571838623
  C         5.6957381488        2.0123994723       18.6056181230
  H        11.4476089141        2.8979661251       21.5162546021
  H        11.9259125877        2.3145692176       19.9900385380
  C        12.6438334509        1.1978776562       21.6145536746
  C        10.1001745594        7.1593152284       17.0727245070
  C        10.2580436822        5.0820989239       15.8424852196
  H         3.1674829352        4.4841704954       29.7463207399
  H         3.1322726270        6.2426833878       29.3485697763
  C         1.5506430575        5.6001168242       30.6376278140
  H         5.1837109769       -1.5495157187       32.6289632014
  C         4.7022316901       -0.1305004676       33.9027570850
  H         5.9806872344        1.2057984474       17.9922822021
  H         6.0956797590        2.9089108609       18.1889612899
  C         4.1475936255        2.1068463380       18.6257077376
  H        12.4024042045        0.8649355139       22.6041924324
  H        12.7472923710        0.2563794025       21.0667532681
  C        14.0437221355        1.9337341050       21.5887050515
  N         9.7989286879        8.0143508967       18.1538852750
  C        10.4451421367        7.9055969044       15.9615100190
  C        10.5487364062        5.8407263018       14.7414280423
  H        10.0265364891        4.0098480745       15.8197604614
  H         0.9271929438        4.7551774070       30.7649060108
  H         1.9430385061        5.9194031147       31.6328207496
  H         0.9293138188        6.4389544384       30.3289806841
  S         4.2875900322        1.4101218647       34.4757161481
  C         4.8449965996       -1.2034722710       34.9444943949
  H         3.7345183857        2.8510198197       19.2753842662
  H         3.8837060875        2.4463836032       17.6211000323
  C         3.4122209610        0.9083586593       19.0306985686
  H        13.9698542021        2.8529926150       20.9445589311
  H        14.6553136532        1.2513964131       21.0765431827
  C        14.5458103913        2.1639000949       22.9844175201
  S        10.1328941279        9.5449187016       17.7302483571
  N        10.4966414552        9.2619519923       16.1794368463
  C        10.8032909982        7.2922279685       14.7988298047
  H        10.6405498317        5.4284700301       13.7866014943
  C         4.4214810145        0.7754938343       36.0240697264
  N         4.6252732968       -0.5502037282       36.0924183210
  O         4.8411428099       -2.4194468091       34.8042191141
  H         2.4109177695        1.2254806709       19.1885177510
  H         3.7588340089        0.5780828507       19.9942242339
  C         3.3944155738       -0.2698824575       18.0444595346
  H        13.8621740108        2.7383305850       23.5626848119
  H        14.6004497461        1.2043397979       23.4619979818
  C        15.9268282665        2.8527513390       22.9589969202
  C        11.1204888982        8.1706250919       13.6999283345
  S         4.1368170342        1.6559842447       37.4483513563
  C         4.8663067000       -1.1885988797       37.3645459461
  H         3.4061316651        0.1143098720       17.0033458675
  H         4.2892970472       -0.9451739670       18.0840317797
  C         2.2154450730       -1.1620784596       18.4134582023
  H        16.1746385246        3.0742826955       24.0243749164
  H        15.7613505164        3.7376404547       22.5092926598
  C        16.9716737451        2.1683059317       22.2389524574
  H        11.0434548470        9.2547169087       13.8961295605
  C        11.5798160657        7.8967867930       12.4447237977
  H         4.2194265228       -0.7875007177       38.0880211404
  H         4.3708706981       -2.1177596317       37.2671789035
  C         6.3997779249       -1.4323909721       37.8070854492
  H         1.3075054893       -0.6030185927       18.2394368981
  H         2.2622106754       -1.5209815951       19.4628302782
  C         2.1368726624       -2.4353608690       17.4826350788
  H        16.7515106321        1.1062561237       22.0033943750
  H        17.0477445966        2.6835993181       21.3287959979
  C        18.3043988151        2.0778301956       22.8453259664
  S        12.0042259269        6.4071018474       11.8888750801
  C        11.7496494562        9.0230215765       11.4701295434
  H         6.5387636737       -0.7241066633       38.7248434337
  H         6.4418334694       -2.5005444416       38.2030027199
  H         7.1399732916       -1.3377406620       37.0536220298
  H         3.0271625703       -2.8939487020       17.2298069504
  H         1.6586413700       -2.0225791837       16.5980389066
  H         1.4667771988       -3.1699263091       17.9711401047
  H        18.8617118987        2.9094899892       22.9622414265
  H        18.8565053755        1.2624620741       22.3142001594
  H        18.2069551554        1.8537485204       24.0060957097
  C        12.5751962002        7.2036291167       10.4218211318
  N        12.3630895976        8.5414265294       10.3463656886
  O        11.2437213979       10.1632429652       11.6491121976
  S        13.3153492888        6.3522674997        9.0767896096
  C        12.6562590412        9.3624381770        9.1308780697
  H        12.7878298829       10.4082576023        9.3794223265
  H        13.4989881830        9.1081810883        8.6044279709
  C        11.4256626448        9.2150084845        8.1649398285
  H        10.4688218596        8.7788051743        8.5447098469
  H        11.1540248640       10.2187132065        7.8378888108
  H        11.7352063019        8.6660329271        7.2346501893
  H        21.9830351368        8.6136595848        3.9704960124
  C        22.2756305074        9.6172676826        3.8047264499
  H        22.9439153272        9.6673240802        2.9674056888
  C        23.0250800804       10.1406715808        4.9779143592
  C        20.9168931430       10.3072504494        3.4555144366
  C        22.1901342993       10.3577736397        6.2289305248
  H        23.8893724696        9.5669492558        5.2009295288
  H        23.3215931878       11.0677991641        4.5921388908
  H        21.0694480852       11.4005687863        3.4780243365
  H        20.1211339485       10.0589960410        4.0727245671
  H        20.7626257907       10.2703919878        2.3932754824
  C        21.4754166960        9.0717358190        6.7145516161
  H        22.9025143316       10.6846578071        6.9850690010
  H        21.6282291113       11.2655661987        6.0685459859
  C        20.7032387378        9.2476326488        8.0234604628
  H        22.3068306122        8.2800970360        6.8155489177
  H        20.8470011713        8.7549858485        5.9123443466
  C        19.4899269648       10.1262539965        7.7369570221
  H        21.2869590777        9.7216143382        8.7275129214
  H        20.3164588987        8.2701329423        8.3675920499
  C        18.1425898144        9.4578370792        7.3787317530
  H        19.3935204819       10.7239329685        8.6566930596
  H        19.8104726847       10.8121165094        6.9584871174
  C        16.9434731153       10.4015743346        7.2338502748
  H        18.0075508504        8.6730760000        8.1251276411
  H        18.2444164812        8.9052370634        6.4091340522
  C        17.2411407024       11.7022931971        6.5913085907
  C        16.5304082568       11.0681558497        8.5086220528
  C        15.7290009858        9.7995807386        6.4719354056
  C        17.0795650176       12.7985463315        7.4174355264
  C        17.6829889185       12.0896118376        5.2663602512
  C        16.6143023915       12.3819543259        8.6416844587
  C        16.1145110961       10.3199494615        9.5822035976
  H        16.1695382656        9.4114313075        5.5828805078
  H        15.3693779586        8.9312766692        6.9851815591
  C        14.5693790832       10.7619312362        6.1322042284
  S        17.4185278213       14.3264325883        6.6416703945
  C        17.7735427964       13.4669164445        5.1769450276
  H        17.9036987724       11.3548144493        4.5240242953
  C        16.2317788177       12.9565006054        9.8134322207
  H        16.0228906583        9.2571665470        9.4477979865
  C        15.5994000701       10.9587589700       10.7207704136
  H        14.9443273856       11.6551906177        5.6057517168
  H        14.1158527156       11.0431899016        7.0431277332
  C        13.4864466846       10.0255144637        5.3763284099
  C        18.1871932283       14.1838064847        3.9881837890
  C        15.6936856591       12.2821748289       10.9083298902
  H        16.2620033990       14.0153062035        9.8225992615
  C        15.1346800732       10.5155937831       11.9423996954
  H        12.5690993340       10.5839565749        5.5749391612
  H        13.1629009486        9.0795043851        5.8523531292
  C        13.8280574758       10.0830421591        3.8294077211
  C        18.0945855247       15.5734767263        3.7500598751
  C        18.6046412664       13.4482203331        2.7615928641
  C        15.2983619856       12.9607290457       12.1292436412
  C        14.8759639285       11.6014225212       12.7116484586
  S        14.9525021836        9.0191750682       12.7193827785
  H        14.6273366847        9.4595443175        3.5971329567
  H        14.0800427071       11.1219246716        3.7197827899
  C        12.5336637707        9.8625541995        3.0245077606
  N        17.6248722369       16.5699085545        4.6365034432
  C        18.3348119061       16.1241901019        2.4883118873
  C        18.8497294955       14.0253033119        1.5378101068
  H        18.6071555556       12.3921953174        2.8547068837
  C        14.0408603398       13.7878404309       11.8706800454
  C        16.3551288038       13.6666196224       12.9538375624
  C        14.4346160712       11.2229149151       13.9936717383
  C        14.2446747106        9.8619410628       14.0906622559
  H        11.7975388564        9.2984105383        3.6725858675
  H        12.0737131687       10.7530188597        2.8698723532
  C        12.8095146082        9.1484758518        1.7436143571
  S        17.6763827915       18.0480843810        3.9180581863
  N        18.1551889896       17.5096975441        2.4626886935
  C        18.7543152619       15.4661276937        1.3381746508
  H        19.2231003504       13.3122221838        0.7932625376
  H        14.1247987114       14.5423142428       11.2412683696
  H        13.7866361891       14.2100092143       12.7948092911
  C        12.8003857183       13.0221706873       11.4305041216
  H        16.8986636910       14.3356242057       12.2458858956
  H        15.8400360617       14.2956956584       13.6956922049
  C        17.4251585055       12.7526849009       13.5500969865
  H        14.3173094076       11.8944303157       14.7913278703
  C        13.9410208718        9.1971874193       15.3815262370
  H        11.9562653797        8.5232439121        1.6482497769
  H        13.6153746958        8.4245311678        1.8423686883
  C        13.0272731159        9.9057124663        0.4733620884
  C        19.0819412156       16.1572205200        0.1605537421
  H        13.0551991817       12.7000598620       10.4124220601
  H        12.5647663762       12.0842756869       11.9271416349
  C        11.6020180541       13.9696665940       11.3903096637
  H        17.5949060295       11.9973672782       12.8016665368
  H        16.9056754265       12.3265979867       14.4382625931
  C        18.5837297152       13.5388669395       14.0876752074
  C        13.8430175833        7.7611628816       15.5571675153
  C        13.7591834652        9.9701937231       16.6599302074
  H        13.5328691126       10.8734283013        0.6099111038
  H        13.6355105687        9.3436244116       -0.1838753895
  C        11.6211301965       10.1677161087       -0.1695489960
  H        19.0046563791       17.2760483007        0.1897810988
  C        19.3668405699       15.6905201743       -1.1301789993
  H        11.8066064151       14.7827098936       10.6666448457
  H        11.4339136089       14.5011562784       12.3068856905
  C        10.4345613907       13.0585501472       11.0156666042
  H        18.9053602245       14.2024064692       13.2122014446
  H        18.1841143820       14.2119514378       14.8837155319
  C        19.7678026133       12.6984394512       14.5497231725
  N        14.0033204180        6.8417689091       14.5222240691
  C        13.5731172547        7.1928440617       16.7790575810
  C        13.4636896436        9.3324140087       17.9320155942
  H        13.8977762525       11.0322517377       16.6380545702
  H        11.2498901365        9.3448163530       -0.7564633396
  H        11.7470188778       10.9782945587       -0.9245099212
  H        10.9977282466       10.6295342292        0.5538065898
  S        19.6757383777       14.0969801468       -1.6986980733
  C        19.2455965692       16.7327545945       -2.2415085465
  H        10.7466779838       12.3559155015       10.2893340599
  H        10.0217337086       12.5709507280       11.8726150939
  C         9.3814400349       13.9359114679       10.3079669891
  H        20.0265071534       12.0754971402       13.7826503054
  H        19.3513264218       12.0159573459       15.2401001520
  C        21.0032906633       13.3466970085       15.1382911897
  S        13.8154724794        5.3471979001       15.1607288195
  N        13.4231454687        5.7854623937       16.6581031521
  C        13.3823832829        7.8294258155       17.9908257533
  H        13.4052762820        9.8030131521       18.8312016588
  C        19.8364245366       14.8461525249       -3.3003867921
  N        19.7060251632       16.1880241125       -3.3672694015
  O        19.0348200116       17.9886684280       -2.1385196341
  H         8.9654684689       14.6149562692       10.9568848381
  H         9.8543903190       14.5144043568        9.5572764125
  C         8.3689944035       12.9882200837        9.6632019506
  H        21.1403175765       12.8887065654       16.1472931559
  H        22.0112379519       13.2389585918       14.6186340495
  C        20.8061737562       14.8744354769       15.3080540109
  C        13.2615353318        7.0181418502       19.1551433348
  S        20.2917235300       14.0435043863       -4.7961420697
  C        19.5782748061       16.9150767293       -4.6082688994
  H         8.7139551037       12.2435404293        9.0023806562
  H         7.7684164590       12.5058423603       10.4686957670
  C         7.3028783742       13.7365565189        8.8528724801
  H        19.9611655001       14.9602256206       15.9882177798
  H        20.5098460888       15.2846409692       14.3460007242
  C        21.9453887733       15.7228949807       15.8786003453
  H        13.5838048580        5.9581192163       19.0315684273
  C        12.7762351022        7.3306287822       20.3926828575
  H        20.2511644451       16.4724319935       -5.3247573577
  H        19.9490417295       17.9214019201       -4.4653520330
  C        18.1590062361       16.7926565983       -5.0790018577
  H         7.1934158302       13.2889310194        7.8904869324
  H         7.7398333604       14.6729046702        8.4791011788
  C         5.9675358030       13.8579421105        9.5280862305
  H        21.9453139105       15.7398954115       16.9540098251
  H        22.8325411047       15.2480106798       15.6050684179
  C        21.8298394246       17.1790602872       15.4463568108
  S        11.9342825809        8.7899511333       20.8010462436
  C        12.7687263214        6.2781477766       21.4441966089
  H        17.9332590126       17.5252565698       -5.8297575264
  H        17.4149111774       16.8333775432       -4.2607140064
  H        18.0351287242       15.8207155966       -5.6109666542
  H         6.1512383132       14.2834149835       10.5254301962
  H         5.1965491049       14.3312886160        8.9205028457
  H         5.6162239860       12.8890795739        9.8035218793
  H        22.1976248710       17.3128415532       14.4118142814
  H        20.8229454622       17.5896455120       15.4559747304
  H        22.4637905242       17.9006539623       16.0451634651
  C        11.5479804484        7.9471320916       22.3298084556
  N        11.9732663351        6.6937064689       22.4550696797
  O        13.3075766787        5.1933699250       21.3298906046
  S        10.6603890174        8.5631326167       23.6577254895
  C        11.9639965426        5.9271711245       23.7480460258
  H        12.0626727128        4.8546696349       23.5662034672
  H        11.0522860929        6.1748861047       24.2167460733
  C        13.2701245223        6.4201199367       24.5345853551
  H        13.7897082398        7.2600420017       24.0858523043
  H        13.9992589915        5.6770225208       24.6746897866
  H        12.9856398470        6.7218384775       25.5346914786
