352
 i =    61900, time =    61900.000, E =        24.9976771430
  H        10.0337253416        4.8626091155       31.4590093369
  C        10.3439031412        5.7173311351       32.1006076417
  H         9.4571614154        5.9189613248       32.5565172412
  C        10.9174103569        6.7833329991       31.2092779133
  C        11.1011241301        5.3291688056       33.2785942782
  C        11.2761994283        6.1547508624       29.8639250009
  H        10.3044027829        7.6156970702       30.9963941629
  H        11.8704855100        7.1702424915       31.5832108274
  H        11.9661090865        6.0076815515       33.5145872671
  H        10.5042405919        5.2246376941       34.1714314308
  H        11.5822465309        4.3733303391       33.1507179909
  C        10.1677690643        6.0100975274       28.8349102082
  H        11.7956772242        5.2377860407       30.0243251377
  H        12.0240690817        6.8193453751       29.4580366680
  C        10.6876382363        5.7558465469       27.4011042515
  H         9.4042226245        5.3384100728       29.1458622326
  H         9.5930713701        6.8729455106       28.9322940065
  C         9.5292754051        5.0834594769       26.7323409668
  H        11.5397833875        5.1692839698       27.4203966725
  H        10.9463035426        6.7466025080       27.0032707837
  C         8.4606019917        6.0166867671       26.1376858741
  H         9.9754516319        4.7599612723       25.8606754324
  H         9.1332254038        4.2082832894       27.2641167165
  C         7.3395714957        5.2621528713       25.3023189370
  H         7.9109847776        6.5275946344       26.9534216018
  H         8.9114625967        6.7897669299       25.5277890758
  C         6.8518164122        3.9188988715       25.9888790945
  C         7.8342651260        4.4298881307       24.1813770182
  C         6.2273249521        6.1691318733       24.6047976617
  C         7.1121566011        2.7785015925       25.2598092847
  C         6.2735981600        3.6065541438       27.1920719980
  C         7.6620919367        3.0479898040       24.0487835391
  C         8.4021935108        5.0549174962       23.0702004613
  H         5.9708156792        5.5577884714       23.7123331216
  H         6.7183870314        7.0935644595       24.1356468280
  C         5.0052720407        6.4746737329       25.5292062629
  S         6.5166879277        1.3426300210       26.0020371311
  C         6.1096480222        2.2558157611       27.4218491756
  H         5.9626123624        4.4105170590       27.8772864134
  C         8.1030518057        2.4185464781       22.9529857632
  H         8.4346982063        6.1247995473       23.0106564910
  C         8.7731305678        4.3845387224       21.9159812878
  H         4.9536740311        5.8310606506       26.4127826289
  H         5.1370020842        7.3859084766       26.1112097502
  C         3.6466293899        6.4597178283       24.8205268547
  C         5.6255756823        1.6028326711       28.6864760817
  C         8.6510628093        3.0404241944       21.8236415667
  H         8.0407750843        1.3127582076       22.8427908024
  C         9.1489796444        4.7863745033       20.6531098005
  H         3.4398756603        5.5917086485       24.1525125810
  H         3.6079325599        7.2983939486       24.1574947271
  C         2.4468278303        6.7072129614       25.7834713602
  C         5.6258029775        0.1843262499       28.9382119596
  C         5.1508887998        2.3633363441       29.8180537631
  C         9.1243596292        2.3553550952       20.5430634922
  C         9.3707272873        3.6654432375       19.8605133047
  S         9.3187889017        6.3321216306       19.8663419378
  H         1.6462199587        6.9644046216       25.1591871346
  H         2.6532763789        7.5259205873       26.4245408634
  C         1.9291417103        5.4864282343       26.5572961772
  N         6.1176318327       -0.7735810396       28.0458256673
  C         5.4192310309       -0.4161043121       30.1396284967
  C         5.0976253847        1.8059303291       31.0368410313
  H         4.8782515917        3.3621805841       29.8676470496
  C         8.0313299704        1.5100662392       19.8973538458
  C        10.4306881500        1.6009063397       20.5834810029
  C         9.7313928995        4.1131372281       18.5761988783
  C         9.6581460469        5.4998446307       18.4273038796
  H         1.2107878141        4.9456141316       25.9274043879
  H         2.7492629402        4.8195647362       26.8550602217
  C         1.0622846928        5.8162742161       27.8267782988
  S         5.9616920161       -2.2869943035       28.6762533304
  N         5.4891655216       -1.8616011420       30.1181060547
  C         5.2229625862        0.3921655793       31.2939100457
  H         4.7809625578        2.5073618680       31.8291288069
  H         7.7548970192        0.6907999001       20.5787033471
  H         8.4313945154        0.8078410607       19.0778037204
  C         6.8104876559        2.2364904695       19.2318996884
  H        10.5505182318        1.2164873486       19.5685184174
  H        10.4393278658        0.7511892633       21.2662539772
  C        11.6761586637        2.4027534155       20.9231100809
  H         9.9133567391        3.4196979255       17.7640543838
  C        10.0950323202        6.1983045915       17.1681343476
  H         0.3088844813        5.0933277040       27.7578660794
  H         0.5733506508        6.8321633257       27.7920956361
  C         1.9118231445        5.6094678865       29.0708381211
  C         4.9838102350       -0.2129330420       32.5377924599
  H         6.9642604105        2.9699060867       18.4812446258
  H         6.3685526959        2.9505273097       19.9994330305
  C         5.8539616005        1.1420407764       18.7849174378
  H        11.5380877190        3.0595911430       21.7200620811
  H        11.9317272608        3.1700439726       20.2116403693
  C        12.9219921573        1.5815979841       21.2297301846
  C        10.1179282042        7.6356021211       16.9626825090
  C        10.2724973425        5.4204191397       15.8713920768
  H         2.3672079324        4.6106060778       29.1305319393
  H         2.8532253557        6.1727300239       28.9298023422
  C         1.1791764582        5.9455060274       30.3185908934
  H         5.0200459436       -1.3439342130       32.5041897667
  C         4.5448041455        0.3392976099       33.7578596182
  H         5.9056202727        0.4009443484       19.6914104982
  H         6.1162390949        0.6564310478       17.8380356062
  C         4.4368426597        1.7984631091       18.7396829595
  H        12.6696399095        0.8147756493       21.9690172484
  H        13.3010506667        1.0658819388       20.3876299248
  C        13.9290427174        2.4943648653       21.8836487988
  N         9.9937507936        8.4922599222       18.0543717237
  C        10.4145320036        8.2868870733       15.7439514527
  C        10.4950634594        6.0920532558       14.6525462775
  H        10.1326430954        4.3332981042       15.8380791195
  H         0.8205685672        6.9923269714       30.3910184449
  H         0.3509759876        5.3001368147       30.3542001745
  H         1.8328656355        5.7594869826       31.2315414064
  S         4.3246611183        1.9606492678       34.1548722600
  C         4.4291657001       -0.6205571538       34.8790831313
  H         4.2390985050        2.2654232621       19.6928148838
  H         4.3486452797        2.4449800398       17.8926659158
  C         3.2437806642        0.8397072742       18.6287290585
  H        13.4005918504        3.1064306768       22.6615615405
  H        14.2060542991        3.1134102455       21.0476629006
  C        15.1907311777        1.8075676288       22.4409934800
  S        10.1172850026       10.0272680555       17.4429895288
  N        10.5732783600        9.6440468518       15.9017114244
  C        10.6320218887        7.5756237807       14.5838496784
  H        10.4617879042        5.5060589794       13.7455995863
  C         3.9490775988        1.3788390123       35.7354237668
  N         4.0548906502        0.0756957235       35.9320307838
  O         4.5399719042       -1.8161881756       34.7583125020
  H         2.3663966011        1.5007082092       18.7593626448
  H         3.1512096410        0.1737632503       19.4868402914
  C         3.0543784512       -0.0171861074       17.3660111028
  H        14.8083462459        0.9890844120       22.9894964815
  H        15.7114292554        1.4612303102       21.5366071969
  C        16.0025065571        2.7196264579       23.4068167740
  C        10.8587243347        8.3331376278       13.4286916719
  S         3.5410012232        2.4228614032       37.1101464861
  C         3.9639337177       -0.5902240457       37.2161985555
  H         3.4545852162        0.4638837346       16.3975516298
  H         3.7270827531       -0.8383048709       17.6048325194
  C         1.6097872415       -0.4297642436       17.2025483671
  H        15.4771747667        2.8522313810       24.3397717243
  H        16.0528342054        3.7084399433       22.9381709919
  C        17.4999228997        2.2488621352       23.6283750488
  H        10.4230005464        9.2741571223       13.3717955939
  C        11.4017325463        7.9930515186       12.1988396417
  H         3.4275845596       -0.0341268021       37.9795894128
  H         3.4194485144       -1.5482352500       37.0121495076
  C         5.3656849660       -0.8171386075       37.9342337787
  H         1.2416038778       -0.5057132857       16.2111668034
  H         0.8964718694        0.2010475192       17.6917613417
  C         1.5335087240       -1.8157107180       17.8012281484
  H        17.8572783445        2.8692774023       24.5139655241
  H        17.5656874460        1.2073438023       23.9467253038
  C        18.3956208769        2.5105389583       22.3762567410
  S        12.0958103373        6.3974882280       11.8106714597
  C        11.4906657637        8.9781138560       11.1279955974
  H         5.2106373954       -1.7166123485       38.6245176321
  H         6.1087230527       -0.8768320811       37.1849896679
  H         5.7531187667       -0.0451483604       38.5163053830
  H         0.4847275836       -2.0618689335       17.7767154401
  H         1.7688289036       -1.8952744988       18.9063399153
  H         2.0449767427       -2.5628806108       17.1775575187
  H        19.1814617257        1.7369417034       22.3283019196
  H        18.9395065872        3.4901164592       22.4214245389
  H        17.7804388497        2.4311534551       21.4699880719
  C        12.3171560992        7.1218668603       10.1989759282
  N        12.0942856313        8.4430768785       10.0632840239
  O        11.0251571776       10.0737014176       11.3143276336
  S        12.6814709443        6.3351166367        8.6759672053
  C        12.2647181080        9.2821417111        8.8697210586
  H        12.3856629480       10.2855526545        9.1876617629
  H        13.1409587623        9.0181822358        8.3080483714
  C        11.0186673958        9.1453383998        7.9404223300
  H        11.1643919325        8.3942563730        7.1765462533
  H        10.0553512255        9.0163227598        8.3533626498
  H        10.9371165018        9.9715989150        7.2151070594
  H        21.8646982883        8.4428288799        3.1689595282
  C        22.5437311367        9.2547454867        3.0237095638
  H        23.3817852939        8.8118953025        2.5033791158
  C        23.0182619725        9.7636186279        4.4295759989
  C        21.9484138861       10.3272326348        2.0882684344
  C        21.9495129339       10.2576954718        5.4300091478
  H        23.5418133678        8.9523424809        4.9741160958
  H        23.8186039164       10.5104583906        4.2708427765
  H        21.1661258209       10.9054496101        2.4711977699
  H        21.5263793155        9.8679778524        1.1687873779
  H        22.7706894244       11.0251159408        1.8636132066
  C        20.8755047069        9.2268691787        5.6596073748
  H        22.4817938787       10.5635561970        6.3095230249
  H        21.3967384294       11.1143488667        5.0534202692
  C        20.3450444591        9.2386526152        7.0711070275
  H        21.2667926971        8.1838521499        5.4840009164
  H        20.0004367705        9.3776367646        5.0239438209
  C        19.2707039546       10.3030897761        7.3141395181
  H        21.1701048286        9.3930920634        7.8252689979
  H        20.0303946554        8.2089315926        7.2567604990
  C        17.8584793898        9.7501497340        6.9846981330
  H        19.2594151087       10.5723399386        8.3494079385
  H        19.5799596334       11.1236925673        6.7220563816
  C        16.6808542950       10.8536132720        6.8149420878
  H        17.5647078360        9.1362205710        7.7862744246
  H        17.8998615993        9.1651194745        6.0331448366
  C        17.1588406648       12.2229302401        6.2653742251
  C        16.2644971740       11.5007340625        8.1257837254
  C        15.4346508234       10.3272822274        6.0936974743
  C        16.9539402050       13.2835996261        7.1841304742
  C        17.7189832404       12.6542047358        5.0607641149
  C        16.3788955351       12.7925529705        8.3468196662
  C        15.7359058310       10.7559631931        9.1606522780
  H        15.7919756613        9.8806843418        5.1428966317
  H        15.0127142303        9.4364762059        6.6160803922
  C        14.3640571610       11.4231385219        5.8133669505
  S        17.4988433622       14.7686492163        6.5249638453
  C        17.9188644521       14.0117391917        4.9625870295
  H        17.9626213147       11.7954590209        4.3732967567
  C        15.9506437391       13.3424189302        9.5132969631
  H        15.5943089093        9.7073657607        9.1097331202
  C        15.3232865200       11.2737453024       10.3500400601
  H        14.7710377627       12.1459840816        5.0876557002
  H        14.0646634465       11.9601045996        6.7090513066
  C        13.1657923051       11.0217733663        4.9031997699
  C        18.1980896449       14.7032601042        3.5324929546
  C        15.4774418064       12.6113875877       10.6023756885
  H        15.8931303269       14.3965885528        9.6183046526
  C        14.9557712023       10.8322751029       11.5779533868
  H        12.4462001046       11.8924530592        4.9064059966
  H        12.6139658751       10.1520299600        5.2842494592
  C        13.5710933036       10.5889379730        3.5198713501
  C        18.1018553237       16.0981344304        3.2841902342
  C        18.5420296398       13.8978203169        2.3633041229
  C        14.9766762393       13.3001124143       11.8672852804
  C        14.6944955140       11.9011036029       12.4496789198
  S        14.7220585921        9.3034290903       12.2526976039
  H        14.3196637370        9.7970269269        3.5482583760
  H        14.0307260248       11.3894740724        3.0337149001
  C        12.4488882234       10.1251915057        2.6378669902
  N        17.6055048370       17.0242160204        4.2436716399
  C        18.2975682230       16.6844063257        2.0255741289
  C        18.7806307489       14.5247720843        1.1773392545
  H        18.5648068109       12.8592392074        2.4028248218
  C        13.6990511382       14.1032073709       11.5926785318
  C        16.1299730372       14.0801590633       12.5776019266
  C        14.3684880726       11.4333156580       13.6761676702
  C        14.3369271414       10.0722431678       13.8026636055
  H        11.6599256886        9.7587445326        3.2011299520
  H        12.1720526944       10.9532905747        2.1474212716
  C        12.9438689338        9.1117411204        1.5442396319
  S        17.6517723568       18.5429185161        3.5849483535
  N        18.1312336130       18.1041368840        2.0384234168
  C        18.6327012026       15.9899222016        0.8828992199
  H        19.1011952092       13.9261328868        0.3495552969
  H        13.8648918962       14.9529283026       10.9488300805
  H        13.3412305362       14.5203005513       12.5935212407
  C        12.4512708583       13.2973795021       11.1492810617
  H        16.5296867491       14.8032241363       11.8528481809
  H        15.6483448760       14.5500751898       13.4621034714
  C        17.3393062534       13.2995448423       13.1728177369
  H        14.1207227548       12.0645307111       14.4830221952
  C        14.0408936753        9.3153123442       15.0328543242
  H        12.1057432087        8.6107780858        1.2186430067
  H        13.6009620742        8.3449849203        1.9166513763
  C        13.6596279949        9.8498304577        0.3297878839
  C        18.9333472820       16.6813409337       -0.3359414180
  H        12.5509766336       12.7061990669       10.2467201814
  H        12.2799445091       12.4644309754       11.9273062111
  C        11.3832959186       14.3952615559       10.9005056030
  H        17.8616013373       12.7214577070       12.3853921421
  H        16.9618726537       12.5353910268       13.8759992490
  C        18.3311352063       14.2999400847       13.8211707255
  C        14.0064661051        7.9162248768       15.2891013988
  C        13.8803724046       10.1176802506       16.2432799693
  H        14.3374729352       10.5861694509        0.7745000764
  H        14.2576915598        9.2116073783       -0.3282652342
  C        12.6765287104       10.4297647344       -0.6576888355
  H        18.8488290960       17.7538466860       -0.2446159006
  C        19.2419378395       16.2573213814       -1.5964897600
  H        11.6523842492       14.9816921755       10.0468742758
  H        11.3372796290       14.9792718304       11.7955090330
  C        10.0189558197       13.6657674647       10.7748587414
  H        18.4675265979       15.0707929442       13.1231413339
  H        17.6907075013       14.8159705604       14.6251598205
  C        19.7303113893       13.7195040180       14.2794788901
  N        14.2288217065        6.9571975441       14.3060985523
  C        13.6192490962        7.3052693818       16.5127472130
  C        13.5663708983        9.5697640531       17.4847391455
  H        13.8571148975       11.1832813913       16.2901814323
  H        11.8646782898        9.6416532701       -0.8896653942
  H        13.0937894101       10.6911326105       -1.6163873087
  H        12.2220803293       11.2940391500       -0.1920706664
  S        19.5293602018       14.6681084434       -2.1670203081
  C        19.2767656341       17.2729845303       -2.6171668909
  H        10.2388551944       12.5798003495       11.0008310752
  H         9.2491250068       14.0362232123       11.5205588998
  C         9.4899830958       13.7854666129        9.3111170347
  H        20.1895722508       13.0753070934       13.5596681581
  H        19.4707124005       13.0495278276       15.0819935542
  C        20.7080513912       14.8333756893       14.7830404983
  S        13.8422346672        5.4810872888       14.9321852748
  N        13.5616373204        5.9282036773       16.4419177799
  C        13.4250553898        8.0974454189       17.6304508375
  H        13.4279725368       10.1629290560       18.2504390567
  C        19.7977918230       15.3706910330       -3.7840208974
  N        19.5932518207       16.6994544630       -3.7911143039
  O        19.0605149663       18.4523071747       -2.4139012812
  H         9.2341436129       14.9136658726        9.3248228570
  H        10.4344339651       13.6891869251        8.6188050985
  C         8.3483512133       12.8056030855        8.8961161878
  H        20.3498446689       15.2108450033       15.6723316842
  H        21.6486375660       14.3020274135       15.0667951579
  C        20.8757623267       16.1142091002       13.8987614684
  C        13.0730199613        7.4268031432       18.8258810755
  S        19.8347611202       14.5306228005       -5.3517108175
  C        19.3876399944       17.4923972724       -5.0311670324
  H         8.6003307214       12.3142196178        7.9827646113
  H         8.2532417062       12.0734378239        9.7484843306
  C         7.0511819867       13.4794166990        8.5036828786
  H        19.9690603374       16.7419268043       13.9837078217
  H        21.0126973711       15.8812105386       12.8795204231
  C        22.0301875885       17.0357344239       14.3634937016
  H        13.2962956295        6.3753975399       18.8556361073
  C        12.6474344755        7.8332830831       20.0816994360
  H        20.0159558030       17.0833729067       -5.8122054662
  H        19.8284953689       18.5096612223       -4.8832355960
  C        17.9524065776       17.5984948572       -5.5758050376
  H         6.5315550028       12.9987179290        7.6789163805
  H         7.2731035053       14.5167340705        8.2309377979
  C         6.0241155788       13.5489498774        9.6563621638
  H        22.9592169890       16.4549735582       14.3870816341
  H        22.1808332688       17.8124810549       13.6272187176
  C        21.9927091459       17.7444036787       15.7395246826
  S        12.3003359341        9.3943245529       20.4805025962
  C        12.5189703655        6.7800946237       21.1040758745
  H        17.6977650678       18.6292146213       -5.8231501097
  H        17.2172235873       17.3890633402       -4.7323983439
  H        17.8038982886       16.9028481019       -6.4032254384
  H         5.1409884355       14.1872474910        9.5215896019
  H         5.5906973020       12.5371894491        9.7900776403
  H         6.6067536355       13.6664634504       10.6010739337
  H        21.5461277720       17.1816792860       16.5370731458
  H        23.0059972117       17.9995330059       15.9455158731
  H        21.4112187706       18.6493041995       15.7990782803
  C        11.8838301845        8.6701649303       22.0499339676
  N        11.9800062018        7.3094893675       22.1545454047
  O        12.7080510445        5.5417066432       20.9679519372
  S        11.2329923353        9.6005252407       23.4136810319
  C        11.7033868178        6.5404506140       23.2938974119
  H        11.3632688363        5.5074795029       23.1015358885
  H        10.8363881029        6.9771109471       23.8105004013
  C        12.9661730802        6.4089342206       24.1758631287
  H        12.9991318000        7.2551490609       24.8120477909
  H        13.9123819866        6.1974017161       23.6962660848
  H        12.7154398449        5.6648631405       24.8759896588
