352
 i =    80700, time =    80700.000, E =        25.2987423205
  H        10.5292893625        6.6905878303       31.2484766835
  C        11.5744069429        6.5369671840       31.5777854629
  H        12.0085635537        7.4471915792       32.0003747511
  C        12.4179656184        5.9903889290       30.5208046032
  C        11.4446503906        5.5920803698       32.6759749048
  C        11.6048368327        5.1757139904       29.5083563070
  H        12.9389915684        6.8607718132       30.0801019565
  H        13.1680203145        5.2765218421       30.9129094658
  H        10.8309316838        6.0575036056       33.4563743247
  H        10.9515396412        4.6305600693       32.6036349060
  H        12.4797934177        5.4161073353       33.0612530080
  C        10.6345554144        6.0538097303       28.6503537066
  H        10.9926795352        4.5146971907       30.1760954864
  H        12.3129578480        4.5769198509       28.8968144106
  C        10.9397138322        5.7268997138       27.1840784673
  H         9.5120906342        5.9333129375       28.8470656703
  H        10.9086407143        7.1183336070       28.9019469283
  C         9.9052883209        4.9911499343       26.4099754178
  H        11.9199452597        5.2310454840       27.0394475919
  H        11.0249791983        6.7807818031       26.8280334633
  C         8.6722876449        5.8638695861       26.0245056060
  H        10.4574735790        4.6265601483       25.5386771442
  H         9.5744592247        4.2459711081       27.0335669360
  C         7.5655386757        5.0551033048       25.3399182208
  H         8.2991009974        6.3177668575       26.8822864152
  H         8.9181229664        6.7510098716       25.3680581943
  C         7.2387156878        3.7068657557       26.0837915937
  C         7.8975205122        4.3018364818       24.1586364639
  C         6.2947741800        5.8949598073       25.0638659682
  C         7.4605542930        2.6071497515       25.2831053238
  C         6.9204979529        3.3765331821       27.3753968884
  C         7.8638958675        3.0012658464       24.0263719643
  C         8.3546952973        4.9198851918       23.0145028808
  H         5.9296551737        5.5985880836       24.0942792325
  H         6.5671489862        6.9224942938       25.0001733504
  C         5.0837889591        5.6505091204       25.8433714770
  S         7.0375394915        1.1464089734       26.0233370401
  C         6.8056739127        2.0142086186       27.5328977680
  H         6.8042350554        4.0991276705       28.1630003761
  C         8.2540505647        2.3627378527       22.8237261349
  H         8.3213997727        6.0081261896       23.0854577922
  C         8.6923030717        4.3553584333       21.7731554384
  H         4.8013190298        4.5405449081       25.9165346062
  H         5.2780908593        5.8656503287       26.9070515618
  C         3.8560199337        6.5198862085       25.4384179263
  C         6.3094443480        1.4269339553       28.7882803399
  C         8.5557677347        3.0541799268       21.6321847941
  H         8.2053573547        1.2410282941       22.8548671587
  C         9.0451419979        4.8577526819       20.5728856725
  H         3.1419025308        5.8257288284       25.0000739450
  H         3.9751314863        7.2708486316       24.7509780258
  C         3.2441577703        7.1044798760       26.6323645613
  C         6.2166361188        0.0438492702       29.0568990019
  C         5.8832877587        2.2879336958       29.8850628645
  C         8.9662523105        2.4153708384       20.3798624113
  C         9.2532126304        3.7792103469       19.7212343110
  S         9.2776658847        6.4669365442       19.8439956927
  H         2.4693444636        7.8182291127       26.1452566034
  H         3.9327971053        7.7133471814       27.1867437850
  C         2.5933196016        6.1428660738       27.6881641614
  N         6.4451014281       -0.9436592196       28.0591925062
  C         5.9000746813       -0.4645900471       30.3266404602
  C         5.4905622323        1.7687131845       31.1126455363
  H         5.9011556715        3.3734640728       29.8274989679
  C         7.7499344452        1.8033905796       19.6066171503
  C        10.1410521832        1.4409878772       20.4227486887
  C         9.7230265399        4.2338325340       18.5149545787
  C         9.8004421302        5.5776064035       18.4238463483
  H         3.0515905919        5.1716162134       27.5677253386
  H         2.7919975674        6.5743096389       28.6479747437
  C         1.1117096916        6.0616862127       27.8021620069
  S         6.3335344950       -2.3710972761       28.8382487477
  N         5.8530916571       -1.8533426432       30.3028149456
  C         5.4964811140        0.2961690255       31.3701928346
  H         5.1486417023        2.4466903783       31.8336382588
  H         7.4653459309        0.8938684182       20.1009548223
  H         7.9427287963        1.4803000119       18.5980065301
  C         6.4162361672        2.6366183888       19.6704224361
  H        10.1599262218        0.9114640807       19.4498328717
  H         9.9390894920        0.6690209614       21.2147709030
  C        11.4818258323        2.2564775997       20.6941041665
  H         9.9394580285        3.5141080079       17.8192039651
  C        10.1224265458        6.3011798328       17.1275039478
  H         0.6149118599        5.6318781993       26.9167914865
  H         0.6393691717        7.0138055337       27.9516815348
  C         0.7008911730        5.0744517946       28.9686809939
  C         5.1051892434       -0.3019785657       32.6167737541
  H         6.4307034293        3.4411205172       18.8608678245
  H         6.3236871261        3.1400526829       20.6159590523
  C         5.0802899746        1.9958128761       19.4433320567
  H        11.3159515127        2.9077455907       21.5862411852
  H        11.6998094704        2.8752188019       19.8424977229
  C        12.6132266089        1.4015312907       21.1240776184
  C        10.2849462454        7.7223941950       17.0191094276
  C        10.3466628194        5.5088698067       15.9771456709
  H        -0.3685811815        5.0956234906       29.2881365615
  H         0.9332540489        3.9975399179       28.7660084817
  C         1.6022390696        5.3604062237       30.2543751945
  H         5.1322441794       -1.3460594396       32.6123590028
  C         4.8589326900        0.1744460517       33.8931885075
  H         4.2014924876        2.6184878630       19.7834093866
  H         5.1910829849        1.1730598996       20.1457319384
  C         4.8994469772        1.5242577249       18.0135282234
  H        12.2652884670        0.8380100060       21.9511446235
  H        12.9228780697        0.7867326226       20.3073683996
  C        13.7784760437        2.3526444944       21.5139026944
  N        10.0672951652        8.7018750379       18.0357354467
  C        10.5228877094        8.2984694385       15.8168793299
  C        10.6744325698        6.0877510636       14.7398992944
  H        10.3265767092        4.4467483445       16.0688388416
  H         1.4925455614        6.4097010892       30.4463291060
  H         1.1583935737        4.8278804014       31.1297457277
  H         2.6354559074        5.0700533263       30.1388174051
  S         4.7256601087        1.8325774504       34.3410501946
  C         4.7244339086       -0.7729103221       35.0216410393
  H         5.3081513749        2.2555830052       17.3855757663
  H         5.3935460212        0.5150107390       17.8791942445
  C         3.4579692730        1.2562058059       17.5925097884
  H        13.2965317739        3.0311653409       22.2667489737
  H        14.2338005509        2.7841425890       20.5639064211
  C        14.9254436509        1.7753450956       22.2783731409
  S        10.2581221588       10.2414036112       17.3602563019
  N        10.6413621999        9.7230460977       15.8790020969
  C        10.7511293725        7.5942338843       14.5982616935
  H        10.6201165038        5.4832302523       13.7997297345
  C         4.3141890010        1.1846163794       35.9645638920
  N         4.3512694499       -0.1024745603       36.1151236437
  O         4.6856692969       -2.0042350001       34.9043139879
  H         3.4828686256        1.2234401387       16.5452503804
  H         2.7131920978        2.0530703469       17.8464799661
  C         2.8848342939       -0.0197316742       18.3171568386
  H        14.6003522762        1.1118858683       23.0398646820
  H        15.5142337118        1.1887810401       21.5596671198
  C        15.9210463830        2.8115884080       22.7499882424
  C        10.9648084884        8.3602745166       13.3880606368
  S         3.7739055288        2.2297022946       37.3482175302
  C         4.1555323719       -0.7641428853       37.4483784633
  H         3.5791875362       -0.4317671741       19.0409593143
  H         2.1086202647        0.3106621017       18.9881119724
  C         2.2526638201       -1.0728440443       17.3948462050
  H        15.3544153734        3.6381394380       23.1719194479
  H        16.5437475371        3.2881474390       21.9980122655
  C        16.9367082904        2.1599009530       23.7208809540
  H        10.7382580851        9.4405838415       13.4139990178
  C        11.4264193136        8.0109516344       12.1629587777
  H         3.2944647899       -0.4184499134       38.0809032870
  H         3.8420746973       -1.7058378614       37.1776050843
  C         5.4676835954       -0.9636155017       38.2181381821
  H         1.6140630491       -0.6565092047       16.5990279943
  H         1.5458715137       -1.8182390521       17.8495300475
  C         3.3426361089       -1.9871063822       16.9253252484
  H        17.0988245506        2.7314082909       24.6056024313
  H        16.4741610718        1.2697307062       24.0979123142
  C        18.2617117217        1.8529226465       23.0681923417
  S        11.9587136448        6.4303895017       11.7154944971
  C        11.5349475487        9.0469560845       11.1286718169
  H         6.1645300660       -0.1127139084       38.1439857477
  H         5.2146158372       -0.8927457060       39.3081675747
  H         5.8876332765       -1.9089120366       37.9393311005
  H         3.3014413327       -2.1962448565       15.8688999638
  H         3.1731093620       -2.9941872024       17.2575446255
  H         4.3583955934       -1.6624889096       17.2650585385
  H        18.6286921234        2.6976826132       22.5408662201
  H        18.2535633374        0.9926936197       22.4554336407
  H        19.0804062427        1.7339773027       23.7910223914
  C        12.2146505680        7.1336924259       10.0752306983
  N        12.0209038649        8.4857924419       10.0124143290
  O        11.4840990226       10.2989535282       11.3657693941
  S        12.6778613470        6.2432003619        8.5950601166
  C        12.2863575052        9.3323365037        8.8164746323
  H        12.4312106441       10.3869499146        9.1351967142
  H        13.2322551490        9.1524818071        8.3800990572
  C        11.1917125336        9.4430495402        7.8154645778
  H        10.2995883634        9.7243447420        8.3759665204
  H        11.5038073832       10.2871185363        7.1667190150
  H        10.9512722497        8.5222249243        7.2959046049
  H        21.4719067326       10.6511873533        2.8572378175
  C        22.1798769054        9.8265168274        3.1058546927
  H        21.5238156037        8.9727052668        3.2655018705
  C        23.1632867734        9.9484556485        4.3085994944
  C        23.0684710682        9.6661813053        1.8593420510
  C        22.1808139137       10.0819196300        5.5511088744
  H        23.8000213035        9.0927013445        4.3399016151
  H        23.8337684698       10.7988309373        4.1471164881
  H        23.8144203620       10.5135151363        1.7499171037
  H        22.3842166412        9.6886197702        0.9722875692
  H        23.7726563708        8.8285423709        1.8912659977
  C        21.5882376080        8.7136317568        6.1089128008
  H        22.6996648823       10.7025835302        6.3152412252
  H        21.3191162760       10.7544578829        5.3608126545
  C        20.3377681480        8.9988602137        6.9573113376
  H        22.3797453374        8.3490316782        6.7900890581
  H        21.4866469674        8.0235570946        5.2803192915
  C        19.1180126779        9.6430135970        6.2940998519
  H        20.4905135838        9.7843757517        7.6080793358
  H        20.0267063452        8.2276449746        7.6429153203
  C        17.9902510268        9.8442134769        7.3252937532
  H        19.4096121400       10.6370033149        5.9637747386
  H        18.7197074451        9.0792545390        5.4358386922
  C        16.6930729513       10.6084259764        6.8731383075
  H        18.2658526150       10.3143194452        8.3212414094
  H        17.6673375545        8.8874205916        7.5875035887
  C        17.0743469677       11.9275946080        6.1188524273
  C        16.2273668854       11.4081962953        8.0507355123
  C        15.5837560890        9.7723980468        6.1930362602
  C        16.9035668280       13.0410204438        6.8548327031
  C        17.6094589391       12.1786883618        4.8435205744
  C        16.4163082135       12.7452747290        8.1518170970
  C        15.7011191798       10.8146485475        9.1990229887
  H        15.9994127527        9.3756269892        5.2173054810
  H        15.2791230904        8.9945951235        6.8013543843
  C        14.3486184718       10.6281870638        5.8010127769
  S        17.3100653154       14.4520077295        6.0440504674
  C        17.9245638273       13.4816764205        4.7460719132
  H        17.9812456923       11.4224408810        4.2067259763
  C        16.0427713868       13.4848523910        9.2465203228
  H        15.6964802389        9.7645242071        9.1808609418
  C        15.3120284657       11.5406160739       10.3008070451
  H        14.6648023320       11.5547572460        5.3851942158
  H        13.8119989906       10.8516439200        6.6686668350
  C        13.4792015368        9.7911534879        4.8697258712
  C        18.4993546162       14.0977271053        3.4993369624
  C        15.4232358364       12.8767383305       10.3557309043
  H        16.2896904679       14.5547138410        9.2860259986
  C        15.0421307336       11.1853893283       11.5606546809
  H        12.4714777018       10.1261511906        4.9943118199
  H        13.4115675577        8.8127042578        5.3061885868
  C        13.8688356478        9.8524301893        3.3611361106
  C        18.4576753845       15.5281739098        3.1916163342
  C        18.8110163010       13.2326216463        2.3788107755
  C        15.1573113492       13.6139377329       11.6684079851
  C        14.9443758688       12.2875135472       12.4343445142
  S        14.7737193177        9.6591562692       12.3023157039
  H        14.5600456314        9.0034993515        3.1471717683
  H        14.5440761209       10.7371109796        3.2181277378
  C        12.6780892321        9.9124131668        2.4499851751
  N        18.0594587213       16.5441996374        4.0634454648
  C        18.7782521522       16.0533404399        1.9686062175
  C        19.1125929320       13.7274828478        1.1235383861
  H        18.6721745240       12.1810775817        2.4370399923
  C        13.8975572968       14.4429933884       11.6698583068
  C        16.3345439635       14.4516979666       12.2046931152
  C        14.5592217600       11.8792336964       13.6932744101
  C        14.5377140358       10.4818403346       13.8353438582
  H        11.9132368637        9.1808683095        2.7369390026
  H        12.3719597810       10.9574826573        2.5356499453
  C        13.2032645698        9.5463934273        1.0728001943
  S        18.1970098198       17.9986687357        3.3271143213
  N        18.6964830244       17.4132073487        1.8998452079
  C        19.2156602097       15.1921628669        0.8452874841
  H        19.3823894277       12.9812032702        0.3219133622
  H        14.0090469824       15.4008373736       11.0591985397
  H        13.6910324124       14.7901313937       12.7299948133
  C        12.6784128806       13.6704352412       11.2552449466
  H        16.4655948293       15.3271715321       11.5390488499
  H        15.9834269061       14.8988880019       13.1448402870
  C        17.6144568838       13.6338917946       12.5170518379
  H        14.4228526920       12.6783023192       14.4224519072
  C        14.2925126737        9.6293487133       15.1003620480
  H        12.7691243217        8.6299147123        0.8732132719
  H        14.2551060808        9.4465851233        1.1590548828
  C        12.7899534150       10.5898222958        0.0099119041
  C        19.4455453679       15.8505251205       -0.3918280498
  H        12.8127035114       12.9971604893       10.4013406795
  H        12.3436531076       13.1457639313       12.1924770609
  C        11.3870233679       14.3584063300       10.7763351588
  H        17.9764037776       13.1750010705       11.6301242420
  H        17.3590664229       12.8161774905       13.1104495765
  C        18.7484454566       14.4891080417       13.0581459662
  C        14.1384433173        8.2569624833       15.1982742632
  C        14.0316615034       10.3898553125       16.3111473209
  H        11.7311603271       10.6809682644       -0.0903965352
  H        13.2050724595       11.5377995055        0.4100181772
  C        13.3020738211       10.3003523748       -1.4352571990
  H        19.2880336118       16.8472270156       -0.3809403523
  C        19.7144146637       15.4173786266       -1.6517823158
  H        11.6489449031       15.1710890999       10.1121732412
  H        10.7604260395       14.6013007864       11.6561442921
  C        10.5196311767       13.3933660994        9.9530706354
  H        19.2816112839       15.0073080710       12.2435425772
  H        18.2594969167       15.1384281867       13.7702476380
  C        19.7223503453       13.6270187721       13.7902619504
  N        14.4154013637        7.3287214610       14.1216247655
  C        13.7552722785        7.6135426175       16.3661532733
  C        13.7359462896        9.7592409746       17.5216869855
  H        14.0213950028       11.4877535944       16.2787295030
  H        14.3437017667        9.8862495471       -1.4595596116
  H        13.3630564948       11.2160625025       -1.9908147287
  H        12.6753694987        9.5238252667       -1.9436519913
  S        20.0740187451       13.7735424699       -2.1149003296
  C        19.9550492321       16.4891925257       -2.6337730457
  H        11.0629347160       12.9223854194        9.1300784617
  H        10.1219092659       12.6569971834       10.6621244418
  C         9.3705024821       14.1672691463        9.3766081374
  H        19.8714127395       12.6843167327       13.2305207003
  H        19.2679467816       13.3989595747       14.7657213431
  C        21.0938785806       14.2543783449       13.9920712738
  S        14.2021674990        5.7717967711       14.7716797025
  N        13.6736071701        6.2242703583       16.2991734525
  C        13.5105119055        8.2641234839       17.6225819247
  H        13.4933030797       10.3652713045       18.3583971344
  C        20.2197272069       14.5346129208       -3.6954816407
  N        20.1831212955       15.8856490738       -3.7863791054
  O        19.6297124845       17.6811784603       -2.4596463609
  H         9.0680110779       14.7934076088       10.1970884465
  H         9.7720529309       14.8928099534        8.7177033881
  C         8.1060574043       13.4405009242        9.0506347448
  H        21.7073991836       13.5040953926       14.4585413755
  H        21.6083517149       14.4181958683       13.0250068242
  C        21.0314846247       15.5927191494       14.6762834584
  C        13.2069774508        7.4644751789       18.7261677641
  S        20.5140296813       13.5784064192       -5.1408214511
  C        20.2107755242       16.6552166445       -5.0616472069
  H         8.2941915179       12.8877427777        8.1728965063
  H         8.0424349533       12.8137017536        9.9097352018
  C         6.9224327149       14.4284292168        8.9636703963
  H        20.7917219359       15.4601785064       15.7615760584
  H        20.2444273912       16.2664242275       14.3309411950
  C        22.3036710377       16.3847278735       14.4194605697
  H        13.3157887926        6.3623265760       18.6325696979
  C        12.8879687845        7.8222626717       20.0087555653
  H        20.6746528759       16.2436364339       -5.9413066714
  H        20.7108397467       17.6081819199       -4.7180066560
  C        18.7665635974       17.0968766716       -5.4628532374
  H         6.5477549886       14.4047897056        7.9156923066
  H         7.2353574343       15.4123762442        9.2778724499
  C         5.7759749175       13.9526255120        9.9703775369
  H        23.1862221066       15.7535435345       14.4374440747
  H        22.2293073921       16.8943440485       13.4914958971
  C        22.5866587352       17.3819741211       15.4345123083
  S        12.8328559264        9.4029099786       20.6411799266
  C        12.6712777537        6.7482978698       21.0019456492
  H        17.9271717647       17.1501635296       -4.7220696616
  H        18.5245012512       16.4408402923       -6.3169635421
  H        18.6747517788       18.1109602151       -5.8348070692
  H         5.2508223612       13.0680055842        9.5114112913
  H         6.2026829659       13.6188154421       10.9448697294
  H         5.1063409224       14.7368354149       10.0979819470
  H        22.2431872901       18.3008053825       15.1217698842
  H        22.0209543884       17.2304708206       16.3335067444
  H        23.5898315285       17.4677762203       15.7534348706
  C        11.9820029234        8.6462756694       21.9650490365
  N        12.0961664233        7.2864127868       22.0734671105
  O        13.0739938278        5.6127596879       20.9003745772
  S        11.3422160110        9.5888580106       23.2975170523
  C        11.8158262117        6.6508403453       23.3355495094
  H        11.7739559633        5.6099988039       23.1839850791
  H        10.9008015357        6.9299759553       23.8444327906
  C        13.0497069750        6.7489479266       24.2263642649
  H        13.3968250112        7.8314361977       24.4351702224
  H        13.8665473741        6.3479402744       23.5985627221
  H        12.9148377109        6.1960680758       25.1343575977
