352
 i =    13100, time =    13100.000, E =        25.5683793269
  H        12.2459957438        6.9102881445       32.3295119196
  C        11.7939121867        5.9218357594       32.4388711144
  H        12.5881244033        5.1417794593       32.2738530976
  C        10.8937981624        5.9601939870       31.2261558063
  C        11.0888291042        5.6169066300       33.7763141451
  C        11.5644854130        5.8874083124       29.8766454988
  H        10.2881385850        5.1038988236       31.2671642550
  H        10.1848823987        6.8101021149       31.3151412208
  H        11.7543050562        5.1501376400       34.5424198714
  H        10.7186698805        6.5630520758       34.2430354963
  H        10.2831495116        4.9306782084       33.7147250033
  C        10.5298162759        6.0407794299       28.8080491208
  H        12.1568978821        4.9550236092       29.8455867237
  H        12.3578746237        6.5850921409       29.8707754787
  C        11.0538078311        5.7774470362       27.4289210351
  H         9.6905638072        5.4163353739       29.0187651167
  H        10.0291219448        6.9918871328       28.7780261821
  C         9.9321060762        5.1866305313       26.5127667506
  H        11.8640416472        5.0221772693       27.4075721182
  H        11.3417852799        6.7369101698       26.9439924724
  C         8.6028507398        6.0009782835       26.2396391289
  H        10.3439959153        4.8483498069       25.5913979882
  H         9.7269043999        4.2496739783       27.0146928945
  C         7.4706477848        5.2543684810       25.6714094742
  H         8.2929967049        6.4259252912       27.1975400206
  H         8.7194274579        6.8226636274       25.5384847506
  C         7.1902457712        3.8963488032       26.3646849418
  C         7.8980677357        4.5438532670       24.4884986369
  C         6.1308269718        6.0317595101       25.4721141772
  C         7.3747978954        2.8032015974       25.5474175796
  C         6.6677231895        3.5414798445       27.6088946499
  C         7.8164719609        3.1663365277       24.3092579070
  C         8.2866755992        5.1734783647       23.3177965050
  H         6.3069657903        6.7734976533       24.5919481970
  H         5.9855414463        6.6256296336       26.3490965667
  C         4.9377850668        5.1683961249       25.1227927127
  S         7.0206634658        1.2748574332       26.4078861902
  C         6.5548465444        2.2203907407       27.8296057824
  H         6.5325410557        4.3096012888       28.3901404291
  C         8.3201060888        2.5441707672       23.2369167295
  H         8.3693782036        6.2037271100       23.3438012736
  C         8.6078445021        4.5860512219       22.1607723099
  H         5.1718002054        4.6491597617       24.1640982694
  H         4.7862233690        4.3801773060       25.8253904313
  C         3.7397494225        6.0264254738       24.9230257642
  C         6.0504185051        1.5017988709       29.0580651283
  C         8.7000321157        3.2425744267       22.0838121543
  H         8.3838690868        1.4706169142       23.1524250274
  C         9.0018030964        4.9112491960       20.8925892906
  H         3.0690045742        5.4555199960       24.2464733498
  H         3.8235204797        7.0263443814       24.4592767170
  C         2.9698301977        6.3646120609       26.2105386596
  C         6.0422242332        0.0731169673       29.3145448209
  C         5.4459257734        2.2559836029       30.1606830449
  C         9.0374627716        2.4818536411       20.8653854821
  C         9.3237274893        3.8248011459       20.1397997937
  S         9.3056651272        6.4226297121       20.0916782593
  H         2.1452297647        7.0967675527       25.9880442133
  H         3.5736815239        6.7995994772       26.9856537726
  C         2.3754953364        5.0986722128       26.7168677783
  N         6.5872699783       -0.9300055385       28.4636602120
  C         5.6881122235       -0.4215417578       30.5606789127
  C         5.0748287201        1.7212921504       31.4004777737
  H         5.3080670368        3.2954182975       30.0246645563
  C         7.7966957013        1.7605534227       20.3835718332
  C        10.3149292138        1.6354629689       20.9186919610
  C         9.7087934196        4.1613457624       18.8414414144
  C         9.6516715274        5.5263771213       18.6489035971
  H         2.0689261015        4.3992851111       25.8855968105
  H         3.1198339479        4.5011996873       27.2951239974
  C         1.2430891729        5.2995626149       27.7407845492
  S         6.4970202578       -2.3779124319       29.2249551621
  N         5.8706568264       -1.8122691147       30.6439714469
  C         5.2875766991        0.3547443810       31.7176241563
  H         4.6419883267        2.4306921507       32.0772265559
  H         7.4033668423        1.1240908530       21.1615669842
  H         8.1244187834        1.0655722433       19.5920924991
  C         6.5915703744        2.7250425125       20.0458703451
  H        10.4186437368        1.2764712503       19.8461551950
  H        10.1552826121        0.7164160795       21.5356036141
  C        11.6563504762        2.2917754111       21.4349374737
  H         9.9731274480        3.3428522716       18.1854436525
  C        10.0041041559        6.3681459589       17.3725800281
  H         0.6387273804        4.3650802596       27.7851283528
  H         0.5643241213        6.1710255046       27.5304556520
  C         1.7518106731        5.6784189417       29.1234879696
  C         5.2771908380       -0.2420135040       33.0389795994
  H         6.7524427325        3.5537021370       19.3244705018
  H         6.1846793779        3.1157724761       21.0148084988
  C         5.4877727321        1.8060648980       19.3913908299
  H        11.3569590912        2.7764841383       22.3769526997
  H        11.8471421713        3.1070777624       20.7539100805
  C        12.7798764149        1.2894188036       21.5791887937
  C        10.0182831571        7.7627662536       17.1950431507
  C        10.4207989309        5.5746379773       16.1652979769
  H         2.7093913880        5.3741326656       29.4637841789
  H         1.7759323689        6.8003976226       29.1598859189
  C         0.8403100241        5.1542211772       30.1978345788
  H         5.4862508772       -1.2933637001       33.0411650334
  C         4.8907242048        0.2710765030       34.2609325466
  H         5.3611761375        0.8698044555       19.9703571447
  H         5.7603124470        1.5639587131       18.4134475774
  C         4.1628855927        2.5531388716       19.2308388193
  H        12.6949405902        0.6645373432       22.5095616092
  H        12.4630244722        0.4860046523       20.9365722956
  C        14.0964899808        1.8618696717       21.2101024188
  N         9.6902101458        8.7568600094       18.1590255718
  C        10.3738518086        8.3335651926       15.9961428891
  C        10.7484633672        6.1228187847       14.9557241622
  H        10.4997339027        4.4962831331       16.2600509977
  H         0.7410182338        5.7628996575       31.1041784134
  H        -0.1704307492        5.0473197646       29.8808121619
  H         1.1455990064        4.2305504178       30.6475554112
  S         4.4599612858        1.8674190327       34.6776879793
  C         4.8292079837       -0.7178062380       35.3562323597
  H         3.9683457163        3.0229620852       20.2272653508
  H         4.2937543195        3.3470429069       18.4374215647
  C         3.0569955280        1.6050492196       18.7749651592
  H        13.9946278932        2.6163757366       20.4170303617
  H        14.7741733575        1.0699155537       20.8001434158
  C        14.7392987216        2.2997673197       22.5265051289
  S         9.9910214045       10.1997653876       17.5057507142
  N        10.3326623392        9.7457101302       16.0095431615
  C        10.7287671791        7.6032076014       14.8526525623
  H        10.9301580089        5.4453409120       14.1078655721
  C         4.1177179627        1.2534495684       36.3548117277
  N         4.2952000892       -0.1260567338       36.4915589412
  O         5.0917173929       -1.9663816455       35.1939128662
  H         2.0879450613        2.0500961492       18.7673772806
  H         2.9973275309        0.8349714555       19.5052786506
  C         3.2729339845        1.0240941810       17.3880994211
  H        15.3572384310        3.1832483116       22.4410669666
  H        13.9479810504        2.5796284527       23.2145275721
  C        15.6141767720        1.2411754355       23.1921377701
  C        11.0138175672        8.2990325431       13.6544848796
  S         3.7298654397        2.0856597611       37.7813536104
  C         4.1683862366       -0.8841646441       37.7459618930
  H         2.3993319235        1.2638680242       16.6649905889
  H         4.1878340563        1.4792354632       16.9326118844
  C         3.4184842844       -0.4428625305       17.4046188463
  H        15.7528431450        0.3901945158       22.5704667373
  H        15.0872389515        0.8817157110       24.0435453582
  C        16.9417019016        1.7226440871       23.6350581544
  H        10.8120364810        9.4027762532       13.7412672704
  C        11.4029266999        7.9151638266       12.3978512095
  H         3.3070097728       -0.5986816714       38.3945475603
  H         4.0377946611       -1.9712131573       37.6156904777
  C         5.5034123959       -0.8272872525       38.4446650505
  H         3.5511831607       -0.8344744445       18.4116649858
  H         4.3713325072       -0.7198452921       16.9177882107
  C         2.2349487347       -1.2683375751       16.9062419183
  H        16.9441184371        2.8323445222       23.9539515387
  H        17.3488953016        1.1067003203       24.4233387242
  C        17.7882651619        1.6051339680       22.4108093382
  S        11.7663679704        6.3546421308       11.9126033320
  C        11.6620909372        8.9590469184       11.3482946099
  H         5.4159126220       -1.6990825086       39.0264875988
  H         6.4036284223       -1.1552981558       37.8470571569
  H         5.7480768174        0.0736812515       39.0096294010
  H         1.2694889697       -0.8723111792       17.2998850373
  H         2.2629109635       -2.3396026042       17.2654451862
  H         2.2656300359       -1.2914223106       15.8540873893
  H        17.6903166627        0.7130167107       21.9073746291
  H        18.8239866125        1.7428464522       22.7896204325
  H        17.4710500079        2.3903696068       21.6934504609
  C        12.4120315867        7.0199166130       10.4280375600
  N        12.3088376753        8.3658062752       10.3313664180
  O        11.3527489854       10.1395180727       11.3614277584
  S        12.7680130517        6.1179643391        8.9851346634
  C        12.5882776960        9.0672799295        9.0473150762
  H        12.8548873501       10.0744189732        9.3347479311
  H        13.3651013512        8.5812040622        8.3964545356
  C        11.2960637204        9.1180237420        8.3512363007
  H        11.4807187456        9.3079603250        7.3020020788
  H        10.7662582509        8.0949180021        8.4093383764
  H        10.5832790155        9.9214021142        8.6789457855
  H        20.6471940043       10.5604134797        3.6632337328
  C        21.7302883300       10.2352666928        3.7289153366
  H        21.6980500086        9.1451976175        3.9465184184
  C        22.5147003444       10.7961362321        4.8886951673
  C        22.2082722381       10.4886227960        2.3544369003
  C        21.7671442541       10.9532507363        6.2156443650
  H        23.4215918463       10.2631062033        5.0830644992
  H        22.8786325145       11.7523908920        4.6049773254
  H        23.2075276349       10.8190065176        2.3974586672
  H        21.5313128051       11.1905188149        1.8327976140
  H        22.1775003855        9.5572665707        1.8320545592
  C        21.1076099007        9.6616158916        6.7628399185
  H        22.4748992791       11.3015399675        7.0158850665
  H        21.1282798314       11.7903008029        6.1110047609
  C        20.4678382520        9.8413529429        8.1254292783
  H        21.8122860417        8.8513163832        6.8527832559
  H        20.3517998504        9.3998717892        6.0107610745
  C        19.1948851738       10.6055042446        8.0347813302
  H        21.1064457124       10.3740252384        8.8050802362
  H        20.2049916387        8.8321694677        8.4442786648
  C        18.0201401488        9.9502986475        7.4474867940
  H        18.8104361863       10.8254959275        9.0347754463
  H        19.3058768504       11.6176101764        7.6062592472
  C        16.7360490289       10.7955573157        7.2518813306
  H        17.7259949639        9.1385879611        8.1422898775
  H        18.3383039767        9.5854088798        6.4612784347
  C        17.1135362350       12.1441693131        6.5936780054
  C        16.3001026572       11.5268935624        8.4549944520
  C        15.5676274220       10.0550705410        6.5474238183
  C        16.8629715470       13.2370881323        7.4069126436
  C        17.7157115193       12.5032426459        5.3555582493
  C        16.3421523878       12.8508093761        8.6136481043
  C        15.9202706739       10.8215754979        9.6172744558
  H        15.9541142213        9.7583461290        5.5855017648
  H        15.3683903027        9.1920829494        7.1684606187
  C        14.3217723008       10.8939851951        6.1921368871
  S        17.3002925659       14.7198108501        6.6102968355
  C        17.7360656724       13.8516367826        5.1537197797
  H        18.0405373920       11.7719035191        4.6785289521
  C        15.9062607682       13.4611123278        9.8238964519
  H        15.6913487904        9.7327468027        9.6216149867
  C        15.6047626874       11.3814956394       10.7866516080
  H        14.6982678832       11.8220274521        5.7520172533
  H        13.7238115295       11.1633704212        6.9823480836
  C        13.4134557290       10.0452756572        5.2871539690
  C        18.1721336689       14.5385071632        3.8728914068
  C        15.6648091109       12.7273097377       10.9916231578
  H        15.9104736111       14.5231156283        9.8486272449
  C        15.0673041099       10.9712627128       11.9767409638
  H        12.3087279742       10.2790904233        5.4624667479
  H        13.5183894292        9.0027221954        5.4439455676
  C        13.7494906361       10.3546085627        3.7888966823
  C        18.1646345520       15.9195109153        3.5424766534
  C        18.7827339266       13.6968457294        2.7713238947
  C        15.2034877561       13.3267282468       12.2280785041
  C        14.8761779664       12.0097227431       12.8508395859
  S        14.6683579850        9.4710459833       12.6728641277
  H        14.7219896985        9.9131002785        3.4418606986
  H        13.9863930813       11.4385807700        3.7299190663
  C        12.7778881118        9.8814709718        2.7735988983
  N        17.6754950620       16.9106720199        4.4558333335
  C        18.3850034627       16.4371475799        2.2686775222
  C        19.1186362754       14.2043227586        1.5531342646
  H        19.0392951877       12.6860830032        2.9851663734
  C        13.8742984522       14.1736991924       12.0402754483
  C        16.4242881047       14.1178087711       12.7773993146
  C        14.4078420445       11.5513963611       14.0766651934
  C        14.3087865564       10.2030923222       14.1703132351
  H        12.6448319498        8.8402232420        2.9339479440
  H        11.8068329191       10.4207823078        2.8699483801
  C        13.2995438556        9.9020440467        1.3086436454
  S        17.6720110977       18.3407140558        3.7536977927
  N        18.0567876678       17.8102614245        2.2774593187
  C        18.8991944111       15.6513982157        1.1784389409
  H        19.5234216791       13.6093305023        0.7823710885
  H        13.9172597043       14.9258966189       11.2242533388
  H        13.5155902043       14.7178253909       12.9232703451
  C        12.6535048592       13.3503065590       11.6193022184
  H        16.6965811924       14.9196201015       12.1567590428
  H        16.0805025282       14.5748399712       13.6895950371
  C        17.5978971445       13.2330903291       13.1974652267
  H        14.3128676463       12.3751318283       14.8117985848
  C        13.9593271477        9.4116100822       15.3794505239
  H        13.8922963927        8.9579444254        1.1257676799
  H        13.9815655339       10.6708124300        1.0978128710
  C        12.1874977915        9.9592744539        0.2341325716
  C        19.0009704619       16.2357168993       -0.0985291118
  H        12.9280753195       12.6756830342       10.8266947961
  H        12.3344684717       12.6995686506       12.4675685190
  C        11.4477416143       14.2761145781       11.3417600325
  H        17.9495420602       12.7391568131       12.2974865255
  H        17.3102213033       12.4293082789       13.8968710434
  C        18.7897939972       14.0112540428       13.6924318665
  C        13.9813007661        7.9687991213       15.4170982095
  C        13.5870354742       10.1450228013       16.6130246403
  H        11.6221568380        9.0181322498        0.2459840691
  H        11.4321873306       10.6958349269        0.4744041697
  C        12.7285494948       10.1952354648       -1.1766978971
  H        18.7585615583       17.2853972222       -0.0324811293
  C        19.2536816654       15.7392964040       -1.4164707307
  H        11.6739749614       14.9672497032       10.4956022256
  H        11.2228863140       14.8870164561       12.2509839094
  C        10.1671167339       13.4600982486       10.9299274147
  H        19.2122248334       14.6651411579       12.9269634401
  H        18.5784638589       14.6674821967       14.5266539706
  C        19.8759618643       13.1267684354       14.1296838220
  N        14.3744799718        7.0974989891       14.3077420833
  C        13.5791675531        7.2849492191       16.6027819753
  C        13.3534109865        9.4533443371       17.7465987865
  H        13.6012769135       11.1896203282       16.6261903216
  H        11.8686079074       10.2694492374       -1.8806836524
  H        13.3269803272        9.2797436305       -1.4199807677
  H        13.4488659698       11.0886652411       -1.1431529808
  S        19.5805186719       14.1289551231       -1.8861028846
  C        19.2787211178       16.8193215567       -2.4567976997
  H        10.4152942487       12.3963944172       10.6847083282
  H         9.5457820123       13.3714480510       11.7940508738
  C         9.3985222508       14.0137667458        9.7046998520
  H        19.9588558089       12.5023574096       13.1557486825
  H        19.6350617252       12.4077845608       14.9323737589
  C        21.1500152941       13.9601681928       14.3400244709
  S        14.1581625428        5.5770360151       14.8531469744
  N        13.6400651671        5.9019642277       16.4034890536
  C        13.2966674617        7.9423705010       17.8032493127
  H        13.2131565239       10.0574867403       18.6655631485
  C        19.7160756608       14.8772165598       -3.4626747075
  N        19.5635923108       16.2265160145       -3.6138794650
  O        19.1444912547       18.0589488873       -2.2573561671
  H         8.9907701051       15.0031779085        9.8683412710
  H        10.0925337098       14.2384686082        8.8815299946
  C         8.3128911363       13.0378374653        9.2227721032
  H        21.9696844505       13.2659069025       14.5133879041
  H        21.3603382173       14.4271861350       13.3544750314
  C        21.0963807271       15.0054177237       15.4965683238
  C        12.9593885847        7.1720004691       18.9294875184
  S        20.0027936521       13.9373552319       -4.9239518091
  C        19.6115072293       16.9141402253       -4.9202290692
  H         7.9978511265       13.1362250330        8.2420833081
  H         8.8238951013       12.0441277197        9.1379138603
  C         7.1442062625       12.9637943343       10.2434609512
  H        21.6400243224       14.5585681004       16.3270861228
  H        20.0453655947       15.3097948112       15.7567213176
  C        21.9244896392       16.3460896841       15.2633243732
  H        13.2467746230        6.0973900310       18.8725349812
  C        12.4498300877        7.4623133444       20.1457131485
  H        20.3538041747       16.4823969955       -5.5817930882
  H        19.9946882755       17.9134428316       -4.8386987304
  C        18.2272226395       16.7855341422       -5.6371096344
  H         7.5057986412       12.8586279625       11.2451773629
  H         6.5010205560       12.1765106687        9.9447912345
  C         6.2546725774       14.1941573595       10.0715520105
  H        22.0738784290       16.9376149272       16.1975153208
  H        22.9438427004       16.1370144121       15.0141184058
  C        21.3731906904       17.3166696530       14.2150604511
  S        11.8120211631        8.9870538317       20.6349939691
  C        12.4466992373        6.4289326681       21.1644362348
  H        17.3704342501       17.3060911947       -5.1410025559
  H        18.0407858723       15.6828114339       -5.6638839934
  H        18.2306198820       17.1015972496       -6.7278008016
  H         6.3593047901       14.8639782538       10.8860949907
  H         6.3914667263       14.7671745163        9.1393682600
  H         5.2228176300       13.8464948792        9.9779665588
  H        21.0441901508       18.2533439907       14.6980529076
  H        22.0802228945       17.5847267579       13.4268549576
  H        20.4843745003       16.8846920735       13.7440045513
  C        11.6807177419        8.2766022070       22.2398885974
  N        11.8912478865        6.9500766351       22.2827335192
  O        12.8671306447        5.2890367021       20.9731225562
  S        10.9155936863        8.9283047784       23.6868643738
  C        11.8458667100        6.1651736565       23.5187681252
  H        11.4432455347        5.2141272946       23.1134306734
  H        11.0581482268        6.4578520532       24.2180167775
  C        13.1797073025        6.0537410008       24.2876054719
  H        12.9429493351        5.5824003519       25.2045505726
  H        13.4708724406        7.0960928580       24.5603177681
  H        13.9481962333        5.5285135744       23.7101207715
