352
 i =      100, time =      100.000, E =        59.0819361636
  H        12.2813926532        6.5855605131       32.2601546613
  C        11.9156202905        5.6929554468       32.5169958016
  H        12.7121299085        5.0356905836       32.5115188556
  C        10.8948772433        5.4268510139       31.3429497443
  C        11.2421016286        5.7883611375       33.8769752781
  C        11.4155409831        5.6180136475       29.9482556445
  H        10.6689531536        4.4706549769       31.5009191202
  H        10.1167098839        5.9785103044       31.5363817229
  H        11.1062398867        6.7653773778       34.2569202805
  H        10.2628225991        5.3261250805       33.7507709055
  H        11.7493062488        5.1481297294       34.5440871053
  C        10.2599923243        5.3878757550       28.9750758531
  H        12.1637948940        5.0000261072       29.7522575305
  H        11.7149777074        6.5693714641       29.7763589826
  C        10.6835114068        5.5002576564       27.5016508858
  H         9.9422781125        4.4395498280       29.0612593842
  H         9.5131791930        5.9884623316       29.1827257038
  C         9.6413122670        4.8666783000       26.5332765665
  H        11.5592800949        5.0473290632       27.2419888721
  H        10.7010430322        6.4889603369       27.2305330212
  C         8.4610808061        5.7570252207       26.2801072921
  H        10.1299429359        4.5890451975       25.6966493738
  H         9.4757955102        3.9773614475       27.0548423517
  C         7.2538825446        5.0298654319       25.5126080142
  H         8.0351752675        6.2135363958       27.1303252301
  H         8.8226662699        6.5205367919       25.7058724868
  C         6.9373880074        3.6074169340       26.0766157242
  C         7.7406100213        4.3251774819       24.2295485173
  C         6.0586405358        5.9590805449       25.3337914661
  C         7.2010006627        2.5931260599       25.2482300839
  C         6.4028314061        3.1569319900       27.3130338131
  C         7.6867174172        3.0035950302       24.0656182500
  C         8.2375792375        5.0968909168       23.1671030862
  H         6.3588053729        6.6801804094       24.6992164794
  H         5.8409443269        6.3831036811       26.1965951191
  C         4.8787821301        5.2236764120       24.6698713723
  S         6.8159215775        1.0240389895       25.9407554783
  C         6.3064732488        1.7531904551       27.4023757734
  H         6.1657887482        4.0776296195       27.9765321251
  C         8.1109482360        2.3762504129       22.9323793771
  H         8.1649096479        6.2799249203       23.2266048691
  C         8.6334286900        4.4545466011       22.0327431813
  H         5.0846827925        4.9789575883       23.7876386455
  H         4.6403000437        4.3317816718       25.1010753047
  C         3.5156207122        6.1404954894       24.5846505968
  C         5.8923208033        1.1295567990       28.6600942951
  C         8.5887654029        3.1215164003       21.8655175338
  H         8.1001078139        1.2188535639       22.8754387747
  C         9.0300560618        4.8584267055       20.8418863970
  H         2.8478899013        5.7463438592       23.9237339552
  H         3.7339298754        7.1044633216       24.2836233302
  C         2.8006882816        6.3167973586       25.9441113810
  C         5.8877172995       -0.2629922986       28.9426799504
  C         5.4006321358        2.0223932250       29.7994382879
  C         8.9924411085        2.4646897343       20.6315281742
  C         9.3150570101        3.8209590168       20.0191659641
  S         9.2227906260        6.3862314193       20.0850315559
  H         1.9885664529        6.8839232535       25.7058283076
  H         3.4456453751        6.8395202979       26.5197095987
  C         2.3058296804        5.0325272354       26.6880676769
  N         6.1638229140       -1.2260001608       27.9915634327
  C         5.6665587949       -0.8356679974       30.1972356157
  C         5.1646589770        1.4709979297       31.0301212465
  H         5.3180253929        3.2036819155       29.6173888811
  C         7.8396968890        1.6887931632       19.8765861073
  C        10.1770859024        1.4929762711       20.8254999229
  C         9.7057196087        4.2420578292       18.7402179640
  C         9.7302065232        5.7012119055       18.6114219105
  H         1.7359195680        4.5122520167       26.0613868270
  H         3.0682377684        4.4583788579       26.9771248735
  C         1.4356430649        5.4061432253       27.9681963524
  S         6.2769082583       -2.7339799211       28.7172252194
  N         5.8541859453       -2.1578242998       30.2304613288
  C         5.2681453360       -0.0162634977       31.2981271109
  H         4.8563006439        2.1396839668       31.8688182644
  H         7.4216881240        1.1960545043       20.6291568436
  H         8.1917182146        1.0539356413       19.2155136176
  C         6.7793471244        2.5271636316       19.2732578323
  H        10.3430699980        0.9372582532       20.0046991090
  H         9.9347825043        0.8264353131       21.5371125377
  C        11.4756130591        2.2611418295       21.3242813494
  H         9.8338974178        3.3396178296       18.1028723202
  C        10.0381612566        6.3958627005       17.4206190780
  H         0.8005498954        4.6320897395       28.0741519019
  H         0.8786023301        6.2258497197       27.7628364680
  C         2.2529007871        5.7388195639       29.2412587926
  C         5.0210740796       -0.6638235359       32.5114021728
  H         7.1346174834        3.1246934877       18.5567295758
  H         6.3576306779        3.0739989587       19.9809144347
  C         5.7255815409        1.5917319065       18.7032947319
  H        11.2125804854        2.7613709434       22.1436760559
  H        11.9168976147        2.8384352346       20.6127355807
  C        12.5719099125        1.3030883846       21.7729014992
  C        10.1033880330        7.8370638295       17.2644116039
  C        10.2169281119        5.5954060262       16.0922904447
  H         2.9295356200        5.0564994037       29.3860532117
  H         2.7686926919        6.6155437335       29.1335895390
  C         1.4031852806        5.7722260379       30.5075414716
  H         5.0528000846       -1.6351938850       32.3754894015
  C         4.6412733646       -0.1507526449       33.7255338313
  H         5.5177112658        0.8758073346       19.3663329109
  H         6.0783896330        1.1259787871       17.8976229171
  C         4.4512904512        2.3084893613       18.2675986724
  H        12.1146564734        0.6091432865       22.4354866788
  H        12.9816453350        0.7724108092       20.9709952979
  C        13.6072675048        2.0691394772       22.4906020119
  N         9.9370006004        8.7581652668       18.2972309016
  C        10.3872581665        8.4821834714       16.0385337331
  C        10.6000390792        6.2057141629       14.9390182223
  H        10.0355269644        4.4511369231       16.1596693362
  H         1.5364493936        6.5652253169       31.1473908868
  H         0.4902749883        5.9014254110       30.0792535221
  H         1.3894296086        4.8571918689       30.9838101842
  S         4.2251294193        1.4627031431       34.1325667449
  C         4.6616305754       -1.1598242068       34.8553038480
  H         4.2583443100        3.1225626770       18.8469381293
  H         4.6094462187        2.6972687383       17.3327775737
  C         3.1727993888        1.4257535237       18.3649437979
  H        13.3568662282        2.0261247289       23.4756902847
  H        13.6013989102        3.0899005050       22.3072261120
  C        15.1276272014        1.6838971455       22.3325037057
  S         9.6587547547       10.2633246386       17.6352136835
  N        10.2305096144        9.8082613856       16.0974930613
  C        10.7493360108        7.7176572769       14.8829289492
  H        10.7844809460        5.6475002494       13.9633550889
  C         4.0965464865        0.8355247325       35.7990396972
  N         4.2926372749       -0.5412739777       35.9655539236
  O         5.0592160654       -2.3337864921       34.7622988615
  H         2.3801409419        1.9806991286       18.1402014074
  H         3.0052711718        1.2498192505       19.3344591384
  C         3.1170960491        0.1666932460       17.4760291305
  H        15.1973397272        0.7419772199       22.7002837417
  H        15.2611330214        1.5912331164       21.3083790718
  C        16.0411447294        2.5733653472       23.0968773590
  C        11.0296897569        8.4380380584       13.6970029373
  S         3.7831116764        1.9055169914       37.2446232412
  C         4.2849671981       -1.2307981730       37.2538072992
  H         2.6409521048        0.3513683990       16.6243445309
  H         4.0182583219       -0.2247757236       17.2353944553
  C         2.2961177416       -0.9241029079       18.2450823486
  H        15.5367402939        2.9414636063       23.8826296976
  H        16.3712983566        3.3057995061       22.5139864160
  C        17.2460862954        1.8099591931       23.5705401748
  H        10.8606834826        9.4144144944       13.9496739128
  C        11.4094733577        8.0844665659       12.4194208268
  H         3.6523705835       -0.7938414260       37.9068326295
  H         3.8128696532       -2.1161263949       37.0961839756
  C         5.6976970820       -1.2892619060       37.8011410685
  H         1.2571195857       -0.6716670185       18.3300789352
  H         2.7405735180       -0.9502171099       19.1932772044
  C         2.3727469868       -2.2625427340       17.5382987249
  H        17.5657059093        2.1666218412       24.3978835535
  H        17.0360402325        0.8460846871       23.7166051094
  C        18.3055079997        1.7995599924       22.4500605248
  S        11.9768950828        6.5192006354       11.9459752807
  C        11.6015984127        9.2070552134       11.4582649616
  H         5.7215471175       -1.4063756436       38.8695982219
  H         6.1050464553       -2.1491370505       37.3530150603
  H         6.2115437419       -0.4660070427       37.5088605187
  H         1.7751353298       -2.8956986244       18.1821808147
  H         3.3613842435       -2.7046101203       17.5361861303
  H         1.9047932993       -2.1902519574       16.5302633718
  H        19.0467605118        1.1760048677       22.6516855412
  H        18.7324347384        2.7417021384       22.3686406976
  H        17.8776823017        1.5804136854       21.4558342864
  C        12.2207902364        7.3322263406       10.3967596910
  N        12.0531691553        8.7067200757       10.2755050961
  O        11.2589305795       10.3943506118       11.6749112931
  S        12.6854973336        6.5272240564        8.8335299523
  C        12.1077765113        9.6123981193        9.1392142441
  H        12.1841107420       10.5903861215        9.4848650709
  H        13.0244327738        9.4427499193        8.7246479277
  C        10.9514051614        9.3371712493        8.1700851429
  H        10.3317962142       10.2487183718        8.3009411939
  H        11.2148882010        9.3729658090        7.0670924134
  H        10.3566049638        8.4245322923        8.3963866273
  H        20.8475319323       11.2250067629        3.0689545906
  C        21.2211687073       10.3535897985        3.3237544917
  H        20.4813969213        9.7113273285        3.5323774699
  C        22.1030465418       10.6213783806        4.5323727154
  C        22.0645848953        9.8536233662        2.1154192530
  C        21.2782805735       10.8697629106        5.8078251065
  H        22.7364833690        9.8290603713        4.6943896708
  H        22.6726349545       11.4588529080        4.3719366374
  H        21.5429529469        9.7050076565        1.2194107119
  H        22.6352891899        8.9896064373        2.3896681953
  H        22.8046228757       10.6116608533        1.9083554250
  C        21.1058230011        9.6415536776        6.6911382383
  H        21.7545660682       11.5689994076        6.3169484191
  H        20.3426309217       11.2071327024        5.5434922570
  C        20.3500572732        9.8423549567        8.0933260128
  H        22.0106139695        9.3788693296        6.9092995988
  H        20.7285301978        8.9101188795        6.1356426036
  C        19.0848280184       10.7717387028        8.0578395000
  H        20.9800012741       10.1686062697        8.8318522675
  H        20.0179679511        8.9144640479        8.3687671858
  C        17.9057718909        9.9621523239        7.4672164270
  H        18.8819568934       10.9770613317        8.9859781130
  H        19.3059278812       11.6068118010        7.5429089539
  C        16.6623526980       10.8416898565        7.2302884577
  H        17.6665208552        9.3391114078        8.2044248208
  H        18.1461638546        9.4144904964        6.6314515475
  C        17.0751786342       12.2120493050        6.6672698451
  C        16.1908504704       11.5711753682        8.4483304434
  C        15.5233065630       10.1164317457        6.4472666454
  C        16.7459025782       13.2670184125        7.4495842153
  C        17.5478841378       12.5957062684        5.3681975610
  C        16.2213741450       12.8919832418        8.6112615852
  C        15.7720219771       10.8016132361        9.5409999501
  H        15.8391810959        9.4564765764        5.7905094689
  H        15.0402503748        9.5703867250        7.1300840718
  C        14.4456078449       11.0257431906        6.0289878103
  S        17.2562197734       14.7726535191        6.6571864979
  C        17.7523721334       13.9771483346        5.2123576109
  H        17.6019307329       11.6216353574        4.7471461078
  C        15.8518699343       13.5032799986        9.8088575380
  H        15.6450913312        9.6339857755        9.3375418194
  C        15.3868746108       11.3894584974       10.6986307809
  H        14.8425572384       11.8140024279        5.5158185584
  H        13.9181531362       11.3638695642        6.8287983490
  C        13.3985457322       10.4056547428        4.9899222375
  C        18.1337675538       14.6261668494        3.9684584135
  C        15.4718763011       12.7413123785       10.9199606390
  H        15.8855318213       14.6924467227        9.8460383593
  C        14.9955195963       11.0050147256       11.9129947756
  H        12.6255779146       11.0647674371        5.0888467429
  H        13.0684573231        9.4812316530        5.3518955522
  C        13.8524797885       10.3428909756        3.6065009083
  C        18.0765140841       16.0210583174        3.6145866658
  C        18.5616320093       13.7172458452        2.7588388427
  C        15.0392338442       13.4706670019       12.1665354657
  C        14.7732295535       12.0699423004       12.7697078836
  S        14.7755882101        9.4863566188       12.7174423607
  H        14.3965251091        9.4423827471        3.4283752610
  H        14.5168057634       11.1238842924        3.3319372139
  C        12.6995797000       10.2540184262        2.5095731790
  N        17.8263673403       17.0226637384        4.5382059175
  C        18.3300994676       16.5744814758        2.3675115489
  C        18.7826008877       14.2563079344        1.5345631719
  H        18.5988843937       12.6142852616        3.0452994099
  C        13.8155407208       14.3542117729       11.7699020671
  C        16.2228661588       14.2491025466       12.8339233627
  C        14.4042854129       11.6243957116       14.0811523929
  C        14.3423220332       10.1850344366       14.1704538996
  H        12.2836127790        9.3220673327        2.5514646730
  H        11.9565339798       10.9308043974        2.7509197609
  C        13.2567831414       10.4516175002        1.1597296105
  S        17.8534379226       18.5386020035        3.7979710367
  N        18.1918555060       17.9246438248        2.3131225036
  C        18.6672318849       15.7409748815        1.2571697479
  H        19.1304814924       13.7311316007        0.6423005590
  H        14.1117268523       15.0405185694       11.0891039256
  H        13.5321802259       14.8798805323       12.5996405756
  C        12.6849660344       13.5241867765       11.2647939025
  H        16.4882983384       14.8655177541       12.1241903614
  H        15.9153484927       14.8571051161       13.5295002646
  C        17.5294457813       13.5280821839       13.2339711001
  H        14.2767247866       12.5670365205       14.7382871524
  C        13.9649833882        9.4691678330       15.3796489354
  H        14.0925984569        9.9283238326        0.9963877128
  H        13.5138167915       11.4465474309        1.1069995586
  C        12.3567224163       10.0870228796       -0.0692693064
  C        18.8605261018       16.3288129115        0.0210129135
  H        12.9475717603       12.9171694704       10.5073418465
  H        12.3347548719       12.9312079774       12.0020311669
  C        11.5295001035       14.3926745602       10.6510148955
  H        17.8224447494       13.0099360492       12.4607633190
  H        17.3174119502       12.8242735067       13.8782409794
  C        18.5881917801       14.4469860389       13.7816010947
  C        13.8970591499        7.9872910292       15.5029371387
  C        13.6647936478       10.2087843571       16.6798740528
  H        12.0692877194        9.1168413527        0.0833551945
  H        11.5132495237       10.6771375842        0.0171131493
  C        12.9672886284       10.1509244439       -1.5082101950
  H        18.7238747053       17.2777667826        0.0518310722
  C        19.1644478346       15.9157390831       -1.2639972589
  H        11.9763931386       14.9800856645        9.9567602951
  H        11.1380315343       14.9990427717       11.3653883313
  C        10.5141383944       13.5512266990       10.0412319858
  H        18.7970540880       15.2533437342       13.1913587798
  H        18.2180415915       14.7417644410       14.6834254083
  C        19.8651001153       13.6779893289       14.0893361279
  N        14.1086577677        7.0536508642       14.4513562614
  C        13.5389618248        7.3179666570       16.6758518454
  C        13.2902431618        9.5177884961       17.8309568124
  H        13.7837739136       11.3632803310       16.6347719553
  H        12.2946164813        9.7342876613       -2.2438305870
  H        13.8971673572        9.6455126330       -1.5386181042
  H        13.1904163549       11.1275622997       -1.8001419554
  S        19.5140031540       14.3244437125       -1.8083189795
  C        19.3561571859       17.0616357987       -2.2816621525
  H        10.8868173261       13.1189230919        9.1683628005
  H        10.2011881920       12.7763503950       10.6603066086
  C         9.2090273314       14.2809042623        9.6259422890
  H        19.9006578264       12.9912609366       13.3547597162
  H        19.7018880777       13.1728551734       14.9428620763
  C        21.1947685607       14.3843294507       14.0219930262
  S        14.1937933879        5.4855521465       15.0887729668
  N        13.6270297601        5.9433132744       16.5930423847
  C        13.2721925424        8.0161607886       17.9011083044
  H        12.9935604579        9.9595785841       18.8207220115
  C        19.7188033830       15.1376983751       -3.4095671089
  N        19.6209286999       16.5422769790       -3.5055781159
  O        19.1411040592       18.2319434262       -2.0142757672
  H         8.8683268650       14.8326213847       10.3509545424
  H         9.5471509975       14.8494667137        8.8310268399
  C         8.2326213107       13.2365813748        9.2294191930
  H        21.8523845180       13.7357488257       14.4440168078
  H        21.5550264319       14.6418457296       13.1355544727
  C        21.2247153652       15.7123093007       14.9607257990
  C        12.9327445070        7.2340220363       19.0619961058
  S        20.2018537610       14.2891128882       -4.9220302573
  C        19.5858712142       17.3271216501       -4.7371961935
  H         8.5726976505       12.6251155119        8.4812615565
  H         8.0277017051       12.6008244144        9.9730833081
  C         6.9344047073       13.8219662553        8.6852003624
  H        21.6878852521       15.4523671516       15.8352728080
  H        20.2739616465       16.0397421299       15.1595482115
  C        22.0174487322       16.7996969312       14.3299375225
  H        13.2573987288        6.3470957277       18.9590671311
  C        12.3709238167        7.5561234552       20.3117015479
  H        20.4190969435       17.0266682945       -5.3293792466
  H        19.9042301020       18.2486457254       -4.4341848494
  C        18.1923731225       17.2086942443       -5.4301664737
  H         6.6757048429       13.3377726384        7.8972946428
  H         7.0251451092       14.7756203781        8.3980461059
  C         5.8061730166       13.6373975640        9.7206471233
  H        22.9979148965       16.4945073270       14.2857806836
  H        21.6499223013       17.0678871517       13.3977912225
  C        21.9749788541       18.0965997715       15.1778771133
  S        11.7546912056        9.0882337528       20.8287593253
  C        12.3623662447        6.3738579634       21.2747180156
  H        18.1972133558       17.5473818609       -6.4297174612
  H        17.6486575658       17.8740147781       -4.9020187710
  H        17.7563568030       16.2945641263       -5.3387977318
  H         4.8970936284       14.0319362658        9.3647086553
  H         5.6223163391       12.6607857666        9.8735712712
  H         6.0662815512       14.0450075193       10.6470635625
  H        22.5497034312       18.8973107090       14.6325018091
  H        20.9487748663       18.4286694048       15.1797585345
  H        22.3391162714       17.9951037777       16.1789260841
  C        11.4954381752        8.1202003001       22.3521744520
  N        11.8220330851        6.7850779513       22.4264848079
  O        12.8561842469        5.2815236214       20.9934700343
  S        10.8494977114        8.8772213503       23.8837166419
  C        11.7717170725        5.8732254439       23.6023148624
  H        11.5317115805        4.9710839203       23.2456396068
  H        10.9927505570        6.0425075324       24.2509962420
  C        13.0776459667        5.9887827970       24.4175012820
  H        13.4490145367        4.9906764153       24.3863826134
  H        12.9219547854        6.3069105046       25.4174303946
  H        13.7306874708        6.6437728817       23.9437726027
