352
 i =    98600, time =    98600.000, E =        25.1163173915
  H        10.2465271072        6.4951221045       32.3072441236
  C        11.2453553075        6.2467194786       32.3137837735
  H        11.5541150351        7.1363232007       32.9422916541
  C        11.8623722244        6.2652458411       30.8719686156
  C        11.3477866793        4.9091955658       33.0334772933
  C        11.0954359992        5.3295209328       29.8640618774
  H        12.0637314600        7.3118464681       30.7041461151
  H        12.8020696461        5.6828778827       30.9816322083
  H        10.5427380746        4.1927248086       33.0021006402
  H        12.3956130557        4.4546215568       32.9636298592
  H        11.2708405428        5.2439592789       34.0603595964
  C        10.2014166659        6.0102226924       28.8351490572
  H        10.4895754837        4.5935733858       30.3749201862
  H        11.8593576550        4.8440924348       29.2882462126
  C        10.7890279377        5.9183846805       27.4302318490
  H         9.2297317554        5.5540604399       28.8317898116
  H        10.2064219949        7.1378454906       29.0297116451
  C         9.8465321993        5.2603771561       26.4798496896
  H        11.8400988821        5.6505637194       27.4677158499
  H        10.8548724109        6.9614202676       27.1346005207
  C         8.5415008282        6.0251483536       26.2310620564
  H        10.3706023112        5.0644077886       25.5574950400
  H         9.6940773552        4.2456284547       26.8953741998
  C         7.4917673258        5.2368131494       25.4033983847
  H         8.0749139239        6.3612492520       27.1460700150
  H         8.8684007873        6.9376917873       25.6777423381
  C         7.1801445179        3.8696323655       26.1054201634
  C         8.0526920386        4.4588882427       24.2592495787
  C         6.2297127104        6.0337116775       25.0377061369
  C         7.3522157044        2.7927703232       25.2381114062
  C         6.7064422833        3.4410721737       27.3628718903
  C         7.9224998586        3.1282893368       24.0611027812
  C         8.5208839247        5.0874876786       23.1094079025
  H         5.7266035242        5.5132904714       24.2145253441
  H         6.5485720776        6.8996721046       24.6566066724
  C         5.4088608160        6.4959231509       26.1619411264
  S         6.7764885232        1.2954299347       25.9001707462
  C         6.5442945243        2.0806128851       27.3929207781
  H         6.6417057201        4.1474920498       28.1772863726
  C         8.4981335236        2.4600883720       22.9766668211
  H         8.5918460964        6.1155063313       23.1234484455
  C         8.9162096035        4.4551913651       21.9351238922
  H         5.8072851818        6.1550034311       27.1095407244
  H         5.4442098114        7.5788170322       26.2420233794
  C         3.9398029176        6.0427783513       25.9266310890
  C         6.1511782820        1.2686337010       28.5713225186
  C         8.9632667362        3.1276598304       21.8698025705
  H         8.4672595779        1.4112796850       23.0888322023
  C         9.3477685349        4.8768148090       20.7093611698
  H         3.8461292678        5.0241366433       26.0174911168
  H         3.5058202581        6.1855170689       24.9631450063
  C         2.8378048961        6.4854607875       26.8004336009
  C         6.3857766442       -0.1330996210       28.8375129150
  C         5.5533799498        2.0241424624       29.7105599202
  C         9.2572857245        2.4724348753       20.5370159041
  C         9.4838081826        3.8332053219       19.8828755899
  S         9.5446972854        6.3552624569       19.9449307694
  H         1.9945224309        6.8538924854       26.2518054223
  H         3.1816158688        7.3547107805       27.2570637626
  C         2.4463057409        5.3305197513       27.7562519898
  N         7.0326250327       -0.9879001144       27.8488666843
  C         6.1725217738       -0.7115309777       30.0761707897
  C         5.3368477099        1.3964096660       30.9363164209
  H         5.2269878174        3.0527343845       29.6037636692
  C         8.1230676070        1.6574564010       19.9436137816
  C        10.5712771061        1.6584943685       20.6828268008
  C         9.9078433747        4.1942802029       18.6284085881
  C         9.9862061213        5.5560006566       18.5067523703
  H         1.8067892183        4.7314035234       27.1249771743
  H         3.2634402447        4.6238256208       28.0449728977
  C         1.6248610581        5.9034512739       28.8844076438
  S         7.1120344498       -2.4523057614       28.6425200600
  N         6.5890981484       -2.0374319611       30.1017420525
  C         5.7113251907       -0.0034837439       31.1369507482
  H         4.8170788291        1.8864164957       31.7128038693
  H         7.8244543130        0.8969980775       20.6647066383
  H         8.5138262570        1.1957643463       19.0159043104
  C         6.9169901877        2.4289234783       19.4489317509
  H        10.8433449720        1.1903001305       19.7245248068
  H        10.4221269954        0.9014907321       21.3463684173
  C        11.7715645388        2.4451341083       21.0555889469
  H        10.1428871074        3.4456325366       17.8696681036
  C        10.2281358689        6.2599382769       17.1816849703
  H         0.9765648048        5.0949080255       29.1723934519
  H         1.0835694744        6.8024996631       28.6412951617
  C         2.4995301219        6.2481876097       30.1055604099
  C         5.6050988295       -0.5768278180       32.4466448197
  H         7.1328397240        3.3062133651       18.7835314860
  H         6.5100876552        2.8534699566       20.3912475385
  C         5.7876363614        1.5861523350       18.9960680167
  H        11.5635009659        3.1584703268       21.8641307116
  H        12.1441031117        3.1194444261       20.3607613024
  C        13.0235540870        1.5501367630       21.2225003549
  C        10.3730405687        7.6475942579       16.9324370475
  C        10.5155134887        5.4177271505       15.9218977841
  H         3.3570657141        6.8975325463       29.7975942357
  H         1.8821247543        6.7354043510       30.8325437778
  C         3.0447273422        5.0237797961       30.7834058961
  H         5.8538463304       -1.6048543562       32.5194021488
  C         5.1393693808       -0.0143462095       33.6723680379
  H         5.5066552197        0.9047473800       19.7601423527
  H         6.1788115935        1.0851307989       18.2045571936
  C         4.5708228251        2.3848642322       18.5581070202
  H        13.0135600998        1.0136782853       22.1796184783
  H        13.0964660114        0.8447508526       20.3756776467
  C        14.2785745477        2.4687655440       21.4155583983
  N        10.2121380735        8.5759903006       17.9678147985
  C        10.6564463194        8.2455562209       15.7594017590
  C        10.8570217928        6.0669096847       14.7602710584
  H        10.5994117320        4.3565045749       15.9714366312
  H         2.3645900208        4.7876036036       31.5330279046
  H         3.2177262089        4.2011749067       30.0803203925
  H         3.9839624860        5.3188348807       31.1634895487
  S         4.6056999833        1.6273740001       34.1549234298
  C         5.2031439255       -0.9492008520       34.8304735003
  H         4.4043697853        3.2195474176       19.1857491000
  H         4.7192347491        2.7142053809       17.4543208265
  C         3.2444414159        1.5910200798       18.4343549126
  H        14.0530709296        3.3125508443       21.9249255632
  H        14.8025206867        2.7999602394       20.4985599946
  C        15.4507485824        1.8926157642       22.1239789060
  S        10.3065117474       10.0738014874       17.3503246079
  N        10.6419328037        9.5964756590       15.8218982205
  C        10.8650972382        7.4997694944       14.6082595057
  H        11.0728709809        5.4819326471       13.8979737423
  C         4.5129081152        1.0268789432       35.8302425816
  N         4.7574507198       -0.2967882613       35.9861451926
  O         5.3371240370       -2.1642752690       34.7490810195
  H         2.7446890549        1.8201230555       17.5630908689
  H         2.4682062988        2.0269038981       19.0657331368
  C         3.3551692885       -0.0068560949       18.6342636215
  H        15.0889111592        1.0783975491       22.6960975909
  H        16.2321838305        1.7381315914       21.3876733808
  C        15.9556860274        2.8602545538       23.2391781993
  C        11.1107524079        8.2436137578       13.4237691039
  S         3.9242385218        1.9591609987       37.1950874652
  C         4.5720013511       -1.1117438576       37.2533363156
  H         4.3181511234       -0.5029846184       18.2695969292
  H         3.3636424671       -0.1821996201       19.6770224438
  C         2.0396612060       -0.6758794606       18.1835293030
  H        15.1956680803        2.9624020721       23.9429539505
  H        16.0367096019        3.9291514904       23.0142330851
  C        17.2753114510        2.3235529483       23.8452196383
  H        10.5985278485        9.1703951696       13.5050970117
  C        11.6142440538        7.9752452548       12.2065409689
  H         3.6050988475       -0.8297295869       37.7848170025
  H         4.5849398345       -2.1752590848       37.1130741197
  C         5.6324847532       -0.8563032668       38.2965795759
  H         1.2087728742        0.0279589463       18.4296772658
  H         1.9312528149       -1.6393997612       18.6984135180
  C         2.0382235971       -0.8393405963       16.6920633819
  H        17.4974665923        2.9561679198       24.7604284055
  H        17.0775531998        1.3011968759       24.2070098726
  C        18.3513655915        2.3400862003       22.8207004425
  S        12.2579156284        6.4468471986       11.6293661370
  C        11.8388498016        9.0915473870       11.2722536859
  H         5.2755252462       -0.6271063748       39.3296379995
  H         6.1820211753       -1.7889309107       38.3259645798
  H         6.1480141243       -0.0116660845       38.0251241852
  H         1.1111741145       -1.2911047191       16.3222790819
  H         2.9688977085       -1.4255685108       16.3654904921
  H         2.2570071031        0.1454333156       16.2308409869
  H        19.3207357481        2.1776450761       23.2610191783
  H        18.2710955557        3.2507059165       22.2260720465
  H        18.3326311003        1.5157218282       22.1540667799
  C        12.4121835504        7.2596459173       10.1298950139
  N        12.2784906359        8.5578823312       10.1038894334
  O        11.4992335411       10.2038532999       11.4826008032
  S        13.3061907171        6.4977757535        8.7455150266
  C        12.4869106600        9.4786244557        8.9892261716
  H        12.7402320246       10.3937439553        9.4760194487
  H        13.3181704473        9.2711449860        8.4271637245
  C        11.2000776629        9.4869305641        8.1191144858
  H        10.2725374048        9.3826087243        8.7167851921
  H        11.0898360810       10.4247075406        7.5990556686
  H        11.2567084502        8.7618115017        7.3231508724
  H        21.2013532285       11.1803864208        3.4438405451
  C        21.8783582369       10.3673283569        3.3604938458
  H        21.3194472805        9.4835982259        3.3825843173
  C        22.7501891950       10.4246463826        4.6878333264
  C        22.7201671945       10.3571006250        2.1400162224
  C        21.9760723306       10.6060130713        6.0044202266
  H        23.3689743043        9.5285303014        4.8546492455
  H        23.4859317162       11.2152530977        4.5623388757
  H        22.2451050149       10.4264499032        1.1916021805
  H        23.3438970382        9.4197629164        2.1439280075
  H        23.3785795783       11.2349760595        2.2446733135
  C        21.1762453339        9.3920615735        6.2132079075
  H        22.6503205044       10.6756992106        6.9247114471
  H        21.4521262608       11.5272733757        6.0891830454
  C        20.4161893187        9.4275957389        7.5440134822
  H        21.8498751925        8.5355921002        6.2874992424
  H        20.3809056399        9.2149726438        5.4946308991
  C        19.2634290525       10.4014719466        7.4750017376
  H        20.8758536836        9.5071278925        8.5221405506
  H        19.9419545138        8.4453478439        7.6178332605
  C        17.9976476990        9.7510548344        6.7778163353
  H        19.0516250460       10.7818763592        8.5589109117
  H        19.6874337444       11.1903658351        6.8747412720
  C        16.7426842527       10.6764519424        6.8023924032
  H        17.7335529365        8.7891687652        7.2051944962
  H        18.1180612999        9.4941973108        5.7336746081
  C        17.1299405164       12.0507106123        6.2480190119
  C        16.3401454557       11.3592995105        8.1072235125
  C        15.4619244304       10.1499394714        6.1330525090
  C        16.9400296335       13.1426905413        7.1038688330
  C        17.7095778864       12.4959837999        5.0565059135
  C        16.3955026769       12.7027584242        8.2691435244
  C        15.8371445973       10.6277773244        9.1915998704
  H        15.7032959362        9.8838083367        5.1225842923
  H        15.1027808528        9.2468300746        6.5785337790
  C        14.2475774763       11.1443431395        6.0817716190
  S        17.3499148139       14.7035256827        6.3667590326
  C        17.9092626327       13.8684874029        4.9414177885
  H        17.8193078783       11.7663390082        4.2864352888
  C        15.9663378649       13.2630172024        9.4595637758
  H        15.8888027161        9.5178137080        9.1603894723
  C        15.4553365587       11.2543009612       10.3850729808
  H        14.4473260677       12.1822327963        5.9470904411
  H        13.6856018451       11.1006518285        7.1137144328
  C        13.2646584185       10.6844498880        5.0474136314
  C        18.2934556533       14.6329028491        3.6641028924
  C        15.4998433010       12.5643676946       10.5661665419
  H        15.8626243691       14.3415627154        9.5422357729
  C        15.2328495759       10.8979639151       11.6587206170
  H        12.2581240600       11.0247992121        5.3485190268
  H        13.3918487671        9.6436213763        5.1677695782
  C        13.6578368107       11.1350500964        3.6321261207
  C        18.2005549808       16.0200415117        3.4855204316
  C        18.7380418201       13.8202060812        2.5082553609
  C        15.0774776660       13.3181234013       11.8065362760
  C        14.8486668000       11.9556186396       12.4754986770
  S        14.9887406031        9.4079218463       12.4776326483
  H        14.7020428769       11.0221454133        3.5798272837
  H        13.4063339627       12.1921213961        3.5148969739
  C        13.0332480001       10.2650633989        2.5566889279
  N        17.7750343676       16.8901737331        4.4279383230
  C        18.3464569779       16.5912982678        2.2623297942
  C        18.9525784135       14.3930874627        1.3181322885
  H        18.8424360133       12.7645830087        2.6339068698
  C        13.7827527213       14.1888126491       11.7295231087
  C        16.2079150996       14.0198509718       12.5524898968
  C        14.4762165520       11.5887603135       13.7686485225
  C        14.4107476286       10.2449938020       13.8757461691
  H        13.2776679216        9.3092513808        2.9169365280
  H        11.9053457451       10.3731345847        2.6888587812
  C        13.4609294347       10.5632491322        1.1047577744
  S        17.8455379980       18.4053193474        3.8463032345
  N        18.1193401930       17.9709478362        2.3137601531
  C        18.6998887289       15.8539203529        1.0862893764
  H        19.1288612426       13.8454737512        0.4392826144
  H        13.9051124990       15.1038365263       11.0831724270
  H        13.5384597393       14.5629213175       12.6748255284
  C        12.5814016265       13.4662030269       11.1522188091
  H        16.4981742933       15.0041590899       12.0918479346
  H        15.9833617398       14.3137139313       13.5599897250
  C        17.5807504944       13.3089741619       12.5752220119
  H        14.2390749516       12.4080666169       14.4889158086
  C        14.2509831620        9.4908451311       15.1416543168
  H        14.4838271080       10.2150051172        0.9514934325
  H        13.6396273597       11.6214866655        0.9300163553
  C        12.5147973424        9.9196868862        0.0576661659
  C        19.0650499277       16.5054690536       -0.0933303783
  H        12.8483942701       12.8816558655       10.2987025952
  H        12.1624043496       12.7127785049       11.9129589382
  C        11.5142552885       14.4018938125       10.6859049900
  H        17.9196738940       13.0813451013       11.5616274193
  H        17.4345062472       12.3383902526       13.0704923512
  C        18.6114173827       14.1750774310       13.2141197907
  C        14.2049601167        8.0320496921       15.2889242776
  C        13.9566007560       10.2059657140       16.3775839729
  H        12.7769704317        8.8666769963       -0.0453806239
  H        11.4237436575        9.9247244979        0.4169057603
  C        12.5867136299       10.6317171263       -1.3022130317
  H        18.9086216393       17.5773809408        0.0887672476
  C        19.4046624036       16.0716407265       -1.3871920654
  H        11.9162313672       15.2453755105       10.1871286572
  H        11.1002774978       14.9169336406       11.5287495000
  C        10.5916426622       13.7376025722        9.6990636540
  H        18.5670314110       15.2084542499       12.8316094507
  H        18.2647779040       14.1944141629       14.2678985350
  C        20.0403099702       13.6272712269       13.0605820404
  N        14.2956261187        7.0286731735       14.3115291397
  C        13.9665855991        7.3788109533       16.4488074499
  C        13.7994186496        9.5562294478       17.6260818961
  H        13.8047231018       11.2694688483       16.3601402913
  H        13.2334522700       10.0419018442       -2.0078097387
  H        12.8453663278       11.7186899756       -1.1998404162
  H        11.6295691656       10.7993290087       -1.8122421731
  S        19.6725717838       14.4268094212       -1.9319545067
  C        19.4745540644       17.0978400031       -2.3801422790
  H        10.1124114044       14.5997266288        9.1788645074
  H        11.2316843372       13.2241070495        8.9490387099
  C         9.5736097156       12.8545629765       10.4674368126
  H        20.3418868999       13.6999418918       12.0478741418
  H        19.9702555084       12.5939540684       13.3877560970
  C        21.2216156425       14.3578480419       13.7616006456
  S        14.1557738318        5.5237945087       14.8882705184
  N        13.8663766725        5.9978291472       16.3883565081
  C        13.6747707009        8.0481426106       17.6581686068
  H        13.6029442878       10.2176507142       18.4970903749
  C        19.8820739423       15.1827053931       -3.4618639624
  N        19.7610983891       16.5340753945       -3.5838985287
  O        19.0135711967       18.1973859698       -2.1870157727
  H         9.4088152500       12.0574845403        9.7882894136
  H         9.9686031003       12.4905351679       11.4269109318
  C         8.3700481750       13.7844706467       10.7460976363
  H        21.2668567789       14.1407330974       14.8221512708
  H        22.0709239676       13.8634807630       13.3469451521
  C        21.2773524893       15.8319576999       13.3879334867
  C        13.2919246761        7.2589693771       18.8568823458
  S        20.2531684521       14.3819488281       -4.9638984662
  C        19.6736748055       17.3052032631       -4.7945400441
  H         7.8276171655       13.3698286486       11.6063634468
  H         8.7532084532       14.7135323247       10.9900110206
  C         7.4050667997       13.8708103666        9.5764754418
  H        20.7192606794       15.9685565703       12.4825512805
  H        22.3471298318       15.9549332796       13.1643170973
  C        20.8183598473       16.7813695536       14.5358857457
  H        13.5815096217        6.2269609753       18.7757447388
  C        12.7222991915        7.6201516851       20.0420792275
  H        20.4806808348       17.0388130553       -5.5478887050
  H        19.7674957550       18.3173642720       -4.5999590371
  C        18.2388075575       17.1260796543       -5.3792159643
  H         7.8211376974       13.5710647756        8.6173521823
  H         7.2831124803       14.8900640373        9.4541729163
  C         6.0665974412       13.2298209990        9.8554676888
  H        20.3304502744       17.6248522950       14.0875219705
  H        20.1438041081       16.2994543666       15.2468322447
  C        22.0172683218       17.4319390126       15.2950940867
  S        12.2194190837        9.2300306829       20.5661049144
  C        12.7007762227        6.6010022502       21.1252242136
  H        18.4018881710       16.4348967005       -6.2103226809
  H        17.8238996283       18.1131483536       -5.6696585010
  H        17.5545213204       16.8335053186       -4.6261472516
  H         6.2496863594       12.2561055113       10.2616718520
  H         5.4007711453       13.7615164332       10.5298010295
  H         5.5163468389       13.1340993435        8.9058643865
  H        21.8516521215       18.4769383906       15.4860264189
  H        22.2082525911       16.8870922348       16.1785152987
  H        22.9593828642       17.4697399015       14.7659613586
  C        12.0364649555        8.5448430084       22.1732223518
  N        12.2441944426        7.2036987275       22.2427538264
  O        13.1152260111        5.4137942555       20.9987420709
  S        11.6773787901        9.4638109699       23.6727114228
  C        12.3191127675        6.5114502004       23.4719571342
  H        11.7441958538        5.5839172889       23.3933606839
  H        11.8382981560        6.8776768527       24.3757552663
  C        13.7133487387        6.2223075520       23.9973675899
  H        14.0704182847        7.0420795835       24.5843935943
  H        14.3581732267        5.9583812311       23.1581312292
  H        13.7115249496        5.4334852714       24.6835262773
