352
 i =    19800, time =    19800.000, E =        25.1583667979
  H        12.1816771667        6.7832333460       32.2416361902
  C        11.3029803783        6.1446229319       32.4211967471
  H        11.7888976730        5.1655304219       32.2489516511
  C        10.2080951638        6.5985921636       31.4341155545
  C        10.9981344177        6.2287507940       33.8969694393
  C        10.8569544546        6.6413252715       30.0049530559
  H         9.3865256423        5.8097544266       31.4813402331
  H         9.8335498222        7.6197811384       31.6436893499
  H        10.5970448630        7.2679429847       33.9875807017
  H        10.3857744083        5.3297766941       34.1769891156
  H        11.8044098832        6.1830529990       34.6158760330
  C        10.2010804011        5.6969487547       29.0981707683
  H        11.9272650807        6.4712615735       30.0238227743
  H        10.7513545123        7.6470759620       29.6719257967
  C        10.6147381355        6.0067394066       27.6617448176
  H        10.5085225786        4.6478584448       29.2849343581
  H         9.1167114800        5.6517893052       29.1423578156
  C         9.6341632830        5.5592712338       26.6628967346
  H        11.5901785807        5.5369550087       27.5512933356
  H        10.8147555080        7.0354843912       27.4969700284
  C         8.3424280041        6.4146972855       26.3802196288
  H        10.2441988071        5.3545191213       25.8163362708
  H         9.2965114316        4.6224537221       27.0311347957
  C         7.2697621660        5.7002744120       25.5484857616
  H         7.8440823456        6.6650363868       27.3266637035
  H         8.5199832013        7.2920019627       25.8052433046
  C         6.9267933684        4.3600630012       26.2031378434
  C         7.6643022190        5.0088857653       24.2737321215
  C         5.9409292126        6.5998769201       25.5029906059
  C         7.2390876117        3.2502872457       25.3858731031
  C         6.3925313128        4.0033804498       27.4230798860
  C         7.7114657236        3.6505435667       24.1627643423
  C         8.2065880208        5.7119158974       23.1751955781
  H         6.1492977811        7.4223160892       24.9077625467
  H         5.5932250692        6.9636840316       26.4757324179
  C         4.8059450331        5.7935620375       24.8160138232
  S         6.8433889591        1.7376079952       26.1476898465
  C         6.3598009430        2.6405332669       27.6132662871
  H         5.9897234003        4.7946399742       28.0770466336
  C         8.1266735385        3.0810617772       22.9810370198
  H         8.1768783891        6.7743286421       23.4024532582
  C         8.6323502539        5.1549522397       22.0125590876
  H         5.0906766538        5.5112165329       23.7787623040
  H         4.4298762674        4.9829308305       25.3428082653
  C         3.4920652640        6.5803928293       24.6426461360
  C         6.0280423296        1.9707362762       28.8818263694
  C         8.6216060001        3.8237208261       21.9067870066
  H         8.0319911415        2.0324183777       22.9921088299
  C         9.0339219416        5.5499270145       20.7655732250
  H         2.8854748495        6.0775631864       23.9599648886
  H         3.4780078559        7.4889057464       24.0395383814
  C         2.7180672557        6.8102078967       25.9447181855
  C         5.9758893430        0.5637282043       29.0925043871
  C         5.4955778195        2.8318979824       29.9869713220
  C         8.9293947207        3.0904579698       20.6188179315
  C         9.2813943225        4.4615614287       19.9576835666
  S         9.2423032689        6.9868168991       19.8828865485
  H         1.9946657572        7.5362021812       25.6273667853
  H         3.1575149250        7.3863535874       26.7161655997
  C         1.9934770074        5.6336940786       26.6623486572
  N         6.3407823342       -0.4140248732       28.1448521963
  C         5.8096370625        0.0088082273       30.3185066384
  C         5.1947438177        2.2661561657       31.1987706093
  H         5.3843479280        3.9122223298       29.8362098969
  C         7.7225204053        2.3262314867       19.9796273698
  C        10.1420608309        2.1647075566       20.9172529680
  C         9.7571859396        4.8346086870       18.6862789597
  C         9.6799833419        6.1674531764       18.4566715392
  H         1.1792177885        5.3523936774       25.9686496054
  H         2.6386541728        4.7626411991       26.7881628441
  C         1.4498677923        6.1563990623       28.0070270225
  S         6.2300082309       -1.8836180820       28.8015053539
  N         5.9394421224       -1.4102191205       30.3695195461
  C         5.4240125694        0.7890571750       31.4227238468
  H         4.9918382405        2.9609307615       32.0212155171
  H         7.1777641440        1.6499936470       20.6594992830
  H         8.1345170772        1.7313028713       19.2053892609
  C         6.7445825391        3.1876944989       19.2044595445
  H        10.2032071390        1.3826793929       20.1361438560
  H         9.9055233452        1.5428457812       21.8293006800
  C        11.5159714712        2.8207943062       21.0554020630
  H         9.8880803076        4.0509231892       17.9953769327
  C         9.9820075197        6.8393206193       17.1529088412
  H         0.6290522317        5.4589048822       28.1333132965
  H         1.1104564398        7.1035632056       27.8342255070
  C         2.5291224871        6.0690548214       29.1593815004
  C         5.2701921358        0.1105932362       32.6879320300
  H         7.1806761408        3.7804337137       18.4125506339
  H         6.2142888965        3.9316871128       19.8018104508
  C         5.7223152080        2.2932397007       18.5224301736
  H        11.5302390502        3.3482727400       21.9865047940
  H        11.6526182025        3.4955019382       20.2068858403
  C        12.7048109718        1.8896852534       20.9875306376
  C        10.0837019800        8.2221464220       16.9073921540
  C        10.2060933428        6.0212192143       15.9347466337
  H         3.0956165452        5.1669789329       29.1175454059
  H         3.3333650779        6.8082180643       29.0016996462
  C         1.9386366448        6.1080779254       30.6392320146
  H         5.7307973733       -0.8760213946       32.7113474680
  C         4.8448683921        0.4956580095       33.9438106322
  H         5.2126975345        1.6390739715       19.2253128434
  H         6.2369526633        1.5050543261       17.9105461825
  C         4.6588512934        3.0683702208       17.7455806557
  H        12.6984995581        1.3273169519       21.9210450340
  H        12.6895555209        1.1735275588       20.2403361070
  C        13.9948475000        2.7179954941       20.9186990371
  N        10.0233623713        9.2457804853       17.8934314552
  C        10.2162125569        8.7712789195       15.6229601925
  C        10.3838095779        6.5987054516       14.6623070792
  H        10.1998478813        4.9619006895       16.0443000906
  H         1.6241120741        7.1374874950       31.0457352043
  H         1.0989433135        5.4395883763       30.8263636785
  H         2.8418914626        5.8084638262       31.2879272397
  S         4.3207939267        1.9917456454       34.4479794689
  C         4.8508567849       -0.5549094888       35.0350729545
  H         4.6677656072        4.0759472341       18.0415652871
  H         5.0202218348        3.1017345688       16.7398899501
  C         3.1743441617        2.6258247547       17.7844464886
  H        13.9245637988        3.6645247272       20.4419966600
  H        14.7579606628        2.1846953881       20.3600037677
  C        14.5415213223        3.0239270946       22.3204567241
  S        10.0003771409       10.7207016131       17.1905070705
  N        10.1476103378       10.1828512772       15.6084789192
  C        10.5082982973        8.0331139614       14.4882789068
  H        10.3831521319        5.8860855898       13.8013916266
  C         3.9810104879        1.2859875383       36.0223565645
  N         4.3451434592       -0.0214110424       36.1725534192
  O         5.3570930548       -1.7339797514       34.9103397813
  H         2.6868491578        3.0565412813       16.8905060815
  H         2.7514313014        3.0819719344       18.6664071317
  C         2.9565288860        1.0829866838       17.5891109987
  H        15.0808145466        3.9544244231       22.1462022948
  H        13.7581030261        3.3657665900       22.9686512636
  C        15.3964000307        1.9502602361       22.8923671113
  C        10.8293773839        8.6902355199       13.2333848222
  S         3.5303191152        2.1410816893       37.4472293518
  C         4.3378625232       -0.7483846003       37.4049981630
  H         2.7409297550        1.0007412001       16.5299247098
  H         3.8282277826        0.4995176001       17.9001153092
  C         1.8153350547        0.5768462982       18.4637028439
  H        15.4767585515        1.0455256782       22.2257131969
  H        14.9189196919        1.6508655595       23.7930366982
  C        16.7973074707        2.3369180674       23.3336807744
  H        10.5052708174        9.7829826090       13.2105680161
  C        11.2731532824        8.2286000376       11.9852497694
  H         3.8081419489       -0.1938582338       38.1541431966
  H         3.9197760502       -1.7566416372       37.1736560788
  C         5.8168818463       -0.8394453282       37.9059587759
  H         0.9545645010        1.2219563853       18.4396847067
  H         2.0916657854        0.4509038898       19.5623665599
  C         1.2700261309       -0.7410562334       17.8784048471
  H        16.6693988074        3.2558197793       23.8979583982
  H        17.2375454400        1.5798882677       24.0008216880
  C        17.7158283670        2.6352929300       22.0784900249
  S        11.8724729725        6.6535333849       11.5712057166
  C        11.2508325632        9.1828746068       10.8732474798
  H         5.9179401771       -1.3949063932       38.8561488307
  H         6.4695612941       -1.4485364274       37.2531505257
  H         6.2908884201        0.1085377628       37.9493550439
  H         0.5006970607       -0.5475588775       17.0928037010
  H         0.9459324522       -1.4252408494       18.6964296300
  H         2.1933871123       -1.2195001198       17.5964263303
  H        18.7856171372        2.6806659690       22.2291285370
  H        17.5218453528        3.6621684668       21.8012962590
  H        17.6236758634        1.9325974841       21.2837871486
  C        12.1429265655        7.2983126488        9.9750179544
  N        11.8037807725        8.6044813189        9.7689694062
  O        10.7410545096       10.2644129831       10.9619010168
  S        12.8905680825        6.5709485737        8.5345428265
  C        11.9178883738        9.3377889316        8.5370134180
  H        12.0706465525       10.4086761658        8.7630720881
  H        12.7549766076        9.1187337309        7.9612900818
  C        10.6144792179        9.2354114756        7.6470024646
  H         9.8484531550        8.6526966385        8.1387651183
  H        10.3269897175       10.2892580370        7.2879240093
  H        10.8678505839        8.5328922620        6.8481860403
  H        21.2821851318       11.3834366866        3.1612068913
  C        21.8232245824       10.3903310346        3.2157491339
  H        21.0532771989        9.6495178095        3.0596744910
  C        22.4266097127       10.1832463857        4.5817599047
  C        22.7967683030       10.1603908742        2.0996088135
  C        21.4746966801       10.6186637144        5.7112035079
  H        22.6540631296        9.0892443552        4.5806969461
  H        23.3544189796       10.6854571946        4.7808548945
  H        22.9174280815        9.0880694044        1.8910485212
  H        23.7789640410       10.4893712894        2.3282489523
  H        22.6252686430       10.6656156243        1.1193454874
  C        21.0522024663        9.3511126210        6.5050638012
  H        22.0982215404       11.3071063847        6.3287365253
  H        20.6118757040       11.1643857622        5.2946890493
  C        20.3300205262        9.6288675841        7.7984614500
  H        21.8953867263        8.6977840616        6.6132304620
  H        20.3683117357        8.7472793478        5.8901645307
  C        19.0582292156       10.5304063910        7.7141212821
  H        21.1613504363       10.2162546476        8.3742495870
  H        20.1607060328        8.6452829656        8.2967650262
  C        17.7955858454        9.8543247280        7.0497914075
  H        18.7606469891       10.9082729800        8.7724520152
  H        19.2676659295       11.4910156292        7.1728519702
  C        16.5172999247       10.6939735946        6.8905360567
  H        17.5150715680        8.9899077805        7.6326044253
  H        18.0690966161        9.6541772780        6.0523747822
  C        16.8562677184       12.1099230788        6.1633627969
  C        16.0680945428       11.4128755316        8.0948344650
  C        15.4206720904        9.9397189914        6.1652829422
  C        16.6501748970       13.1876150412        6.9134440411
  C        17.3025184397       12.3921001379        4.9060357543
  C        16.1850201514       12.7678844015        8.1688069435
  C        15.6697285256       10.7703817718        9.2111690225
  H        15.8764885414        9.4085743970        5.3562206385
  H        14.9375887325        9.2324752333        6.8654798510
  C        14.3329282527       10.9222319713        5.5845086406
  S        17.0232032401       14.6435541382        6.1184046836
  C        17.4329953995       13.7306393104        4.6906145287
  H        17.5682370119       11.6062420925        4.1609239816
  C        15.8500189322       13.4393443498        9.3083651540
  H        15.5905294280        9.7061977797        9.2660396571
  C        15.3146704882       11.4219360548       10.3597658334
  H        14.6836931269       11.6047132727        4.8272812722
  H        13.8407715268       11.4788203785        6.4113264042
  C        13.2471882513       10.1108875384        4.9101839387
  C        17.9094200274       14.3287659539        3.3977776000
  C        15.4480998204       12.7773652120       10.4643499503
  H        16.0958700382       14.4513556012        9.3772563129
  C        14.8267089306       11.0676096816       11.5687240816
  H        12.2984935070       10.3547787660        5.4780600172
  H        13.3469773764        9.0142679858        5.0209862204
  C        13.1074279751       10.5885409031        3.4445110378
  C        17.9342009284       15.7449112454        3.1262132762
  C        18.4874565404       13.4443101165        2.2689535079
  C        14.9310328474       13.4780759428       11.7054484305
  C        14.6237472811       12.1546612361       12.4099056918
  S        14.4067559475        9.5511724917       12.3172376706
  H        14.0589964244       10.8639713331        3.0818538337
  H        12.3356785608       11.3747791057        3.4324331167
  C        12.5185687471        9.4997331749        2.4882235048
  N        17.6898542659       16.7591996598        4.0385106228
  C        18.2212639024       16.2570522268        1.8824417882
  C        18.8050209964       13.9742085951        1.0128511962
  H        18.6432652091       12.4223605357        2.4608084407
  C        13.6103599405       14.2663616405       11.4790343323
  C        16.1316905209       14.2236029560       12.3500657234
  C        14.2261495961       11.7553113511       13.6502028858
  C        14.0862799167       10.3877506707       13.7615055123
  H        13.1567891147        8.6665506814        2.4176594880
  H        11.7111150336        9.0072580058        3.1174963748
  C        11.8573736473        9.9497080395        1.2796971417
  S        17.4591300179       18.1442498605        3.2499100092
  N        18.0781740936       17.6686065516        1.7767264921
  C        18.6156525579       15.4364076924        0.7385702440
  H        19.1407833020       13.3712895814        0.3374384966
  H        13.7605690908       14.8922867795       10.6092958464
  H        13.3681165660       15.0075200606       12.2453356444
  C        12.3926726168       13.4201976450       11.3315663366
  H        16.7443922359       14.8313755098       11.6938772834
  H        15.7596093229       14.8364099381       13.1521170930
  C        17.2114645861       13.3517496811       12.8340343141
  H        14.1060436612       12.5852043790       14.3061637004
  C        13.7867796942        9.6910882198       15.0519242499
  H        11.1855123211       10.8046968576        1.3835046232
  H        11.2697423034        9.0768038821        1.0065935782
  C        12.7841036311       10.0219056936        0.1073284210
  C        18.8771287469       15.9747889803       -0.5581572655
  H        12.3579300038       12.7663736629       10.4383965748
  H        12.2756692153       12.7206852523       12.1577090256
  C        11.1802028406       14.3749168730       11.0867301412
  H        17.7616282760       12.8125900767       11.9823123227
  H        16.9374116845       12.6213869675       13.6255116859
  C        18.2258070726       14.1459795386       13.5571761920
  C        13.7487909079        8.2638222284       15.2517791609
  C        13.4339990908       10.5285159405       16.2581477300
  H        13.4570449411       10.8992304329        0.1844033660
  H        13.5180318437        9.2197313647        0.1875688217
  C        12.1889698988       10.1210583814       -1.2482279047
  H        18.6344682609       17.0173639677       -0.5098332839
  C        19.1513789641       15.4713948277       -1.7821916921
  H        11.5161501439       15.0882358569       10.3203075406
  H        10.8917569766       14.9763673323       11.9183523274
  C        10.0356126412       13.5514171553       10.5331867322
  H        18.2432740604       15.1840521125       13.1924420475
  H        17.8172104875       14.3565489246       14.5652485523
  C        19.6266226117       13.4938775153       13.6698585329
  N        13.8990382158        7.3052572782       14.2349935130
  C        13.5197265977        7.6576428152       16.4993893078
  C        13.2639639337        9.9889237945       17.5151882208
  H        13.4257407245       11.6201067667       16.0525230261
  H        13.0856780705       10.1615333585       -1.8406149641
  H        11.5928813679       10.9741740130       -1.3693665147
  H        11.6818650786        9.1318355968       -1.3466347083
  S        19.4082282084       13.7959777008       -2.2509393999
  C        19.2986688532       16.4947224307       -2.8303943115
  H        10.4799189696       13.1107458244        9.7016835959
  H         9.7473341321       12.7241245578       11.2213858859
  C         8.7214111188       14.2181683704       10.1628481335
  H        19.9270311388       13.0131249050       12.6950640796
  H        19.5496218015       12.6147618265       14.2890309141
  C        20.7168902354       14.4883087553       14.1253926959
  S        13.8721452525        5.8180496041       14.9229283394
  N        13.4836697274        6.2582582845       16.4597141301
  C        13.2413268556        8.4655262368       17.6964187166
  H        13.1293725797       10.7234969725       18.3317397671
  C        19.7260645336       14.4384082404       -3.9114990183
  N        19.7193969181       15.7870230003       -3.9504439926
  O        19.1661256667       17.7357377798       -2.6220683670
  H         8.1662905349       14.1041701293       11.0794022163
  H         8.7564943810       15.2563632154        9.9551201636
  C         7.9743207368       13.4205110868        9.1018895120
  H        20.3107249751       15.1917749083       14.8735070485
  H        21.5161720830       13.9672485919       14.6519229722
  C        21.2479208434       15.2650371622       12.9011356980
  C        13.0567780414        7.7514249632       18.8774328016
  S        20.0592244166       13.4665873880       -5.3036774169
  C        19.8879270538       16.5193834727       -5.1893801294
  H         8.6031636643       13.2135022846        8.2206302386
  H         7.6927050884       12.5076506430        9.5889816348
  C         6.7749018639       14.1813675845        8.6506887620
  H        20.3435971147       15.7133495950       12.4176581411
  H        21.6920368386       14.6084792087       12.1870353766
  C        22.1453753549       16.4729686409       13.1835837542
  H        13.3468560242        6.7394247738       18.8086518802
  C        12.6065397379        8.2012106679       20.1361585528
  H        20.7358994296       16.1836124595       -5.7768840095
  H        20.1195624153       17.5863532421       -4.9031754415
  C        18.5138821522       16.5937564372       -5.8417598311
  H         6.3029386442       13.6335386822        7.8989776634
  H         7.1026874977       15.1259986446        8.2060938261
  C         5.8080481927       14.4520891909        9.8221085593
  H        23.0332226665       16.2134921479       13.8132560970
  H        22.6638413250       16.8492174414       12.3194357118
  C        21.4437579764       17.6448236953       13.8341824087
  S        11.9819933138        9.7033039556       20.6656692001
  C        12.6912325152        7.2125663284       21.2091270453
  H        18.5345546135       16.0379364085       -6.8244173519
  H        18.2128158650       17.6431110221       -6.0270342268
  H        17.7026180994       16.0183519302       -5.3692221615
  H         5.7614724566       13.5474304139       10.4781577886
  H         6.2245756463       15.3591041180       10.4184686459
  H         4.8598900274       14.6257750728        9.4399807779
  H        20.5828677368       17.9267218264       13.2199944541
  H        21.0430836533       17.4017585053       14.8380496350
  H        22.1651723686       18.4814693603       13.9355311220
  C        11.8676246767        9.0052006695       22.3278721067
  N        12.0775136009        7.6535866600       22.2954330437
  O        13.0313953611        6.0870270170       21.0044656509
  S        11.3608669376        9.8469754688       23.7977710014
  C        11.8769254804        6.8005698944       23.4384013199
  H        11.8743313214        5.7486286698       23.1806318002
  H        10.9763675518        7.2467886532       23.8030733221
  C        12.9975296792        6.9735034636       24.4001389410
  H        13.8066176642        6.3770521507       23.9818199046
  H        12.7901390080        6.6761234285       25.4426836693
  H        13.2708209313        8.0658588108       24.4677538155
