352
 i =    47300, time =    47300.000, E =        24.7537534678
  H         9.7851826427        7.1621241969       32.9869589638
  C        10.4697449479        6.8891919006       32.2076407943
  H        11.2257286930        7.6740362433       32.0434672966
  C         9.6693937597        6.5527500366       30.9823100981
  C        11.2817145836        5.6645043574       32.7123136232
  C        10.4320658682        6.1114738887       29.7442054078
  H         8.9921191061        5.7702912095       31.2073453673
  H         8.8520068487        7.2725766111       30.7330331076
  H        10.6361393259        4.7858369504       32.6152566982
  H        12.1108469468        5.5390274330       32.0857837234
  H        11.6347696013        5.7752411908       33.8050372962
  C         9.4804777174        5.9182360493       28.6413180176
  H        10.8563493335        5.0962810187       29.8803373624
  H        11.1747199433        6.8920182244       29.5231831150
  C        10.0740861228        5.6444534216       27.2190634401
  H         8.8753191696        5.0303415585       28.7958778614
  H         8.8259710582        6.8064857221       28.6493351271
  C         9.0788948042        4.9940783690       26.2784590486
  H        10.8487850141        4.8555468590       27.2196512020
  H        10.5713984167        6.4913790203       26.8197340642
  C         7.8066937913        5.8197420041       26.0141769652
  H         9.5848874113        4.7598184526       25.4052948099
  H         8.8686127436        4.0823574237       26.8210937709
  C         6.7540021280        4.9888057517       25.2754668719
  H         7.3140446613        6.0820777882       26.9915129732
  H         7.8855938592        6.6500234595       25.3645359562
  C         6.5119065556        3.6312349651       25.9086774183
  C         7.3696573335        4.3189065517       24.0326160738
  C         5.5184280094        5.8552299787       24.9695962423
  C         6.8568506285        2.5887037283       25.1054449818
  C         6.0033249017        3.3155092274       27.1600955106
  C         7.3997640522        2.9636653680       23.9209387033
  C         7.7777610113        5.0299254081       22.9171945601
  H         5.7451710716        6.5512430479       24.1132002467
  H         5.2497048082        6.3199315438       25.8300039973
  C         4.2856612742        5.0018515338       24.5992122444
  S         6.4759785388        1.1026974740       25.9322637932
  C         6.1272077798        1.9866341988       27.4244549312
  H         5.7858871713        4.1552513395       27.8117036475
  C         7.7279388766        2.3243448609       22.7698725981
  H         7.6424801423        6.0649733942       23.0235516811
  C         8.1582873319        4.4284514133       21.7766234525
  H         4.5580799917        4.4965744071       23.6526308125
  H         4.2317153742        4.2513046569       25.4224097614
  C         2.9511580624        5.7738410646       24.5426356493
  C         5.8527892157        1.3900294840       28.8102138616
  C         8.1649862838        3.0664215475       21.6334961803
  H         7.6099352551        1.3481554509       22.4285734104
  C         8.6615072520        4.8340800528       20.5700607115
  H         2.2230017200        5.2579589085       23.7994658927
  H         3.1675028984        6.6989240426       23.9881655078
  C         2.1831453517        5.9662301084       25.9043587476
  C         5.9241537027        0.0036940658       29.0990537431
  C         5.3602160186        2.3216987103       29.8815827300
  C         8.6309090311        2.3910688675       20.4620304194
  C         8.9207550908        3.6974633781       19.7539496979
  S         9.1197355392        6.2565155430       19.7821087758
  H         1.6789962234        6.9412345878       25.9476804268
  H         2.9983562349        5.9863506931       26.5890767397
  C         1.2775582182        4.8062549676       26.4316327057
  N         6.2416408254       -1.0268751763       28.1958163886
  C         5.5623957782       -0.4911337341       30.3373656355
  C         4.9769703698        1.7961323280       31.1394690253
  H         4.9314867872        3.2388171730       29.5822217804
  C         7.4809583482        1.5386623443       19.7778281261
  C         9.8821447771        1.6335274538       20.8215630874
  C         9.3476106304        4.0436658805       18.4541298507
  C         9.4754750347        5.3994871996       18.2934540439
  H         0.4389394074        4.6507103758       25.8061892795
  H         1.8944090736        3.9821525915       26.6038297753
  C         0.7111533842        5.0861779791       27.8501044583
  S         6.0751038590       -2.4971356769       28.9382444979
  N         5.6977861140       -1.8955305628       30.3944741511
  C         5.1835778751        0.3404038989       31.4096083830
  H         4.4904663502        2.4620589661       31.7940264316
  H         7.1987152477        0.5859512305       20.3111244754
  H         7.9332669247        1.2563545188       18.8331754678
  C         6.2389530407        2.3312095097       19.4366404122
  H        10.1256006629        1.0574519370       19.8930876426
  H         9.7535627889        0.7873271544       21.5608619914
  C        11.0206503136        2.4960825455       21.3049275360
  H         9.4897090797        3.2071707285       17.7339378472
  C         9.7383475392        6.1280336301       17.0159771425
  H         0.0586886575        4.2129016495       28.0989169192
  H        -0.0096339225        5.9243374218       27.7945491185
  C         1.8684178824        5.1293859897       28.8786149653
  C         4.9282198519       -0.2533196304       32.6853167610
  H         6.4341173517        3.1801273597       18.8697054244
  H         5.6731669790        2.6352655247       20.3018616860
  C         5.3457537000        1.4228599630       18.5828468583
  H        10.7327460497        2.9966148690       22.2736377371
  H        11.2264370917        3.1969134661       20.5386259393
  C        12.2713017767        1.6275473817       21.4102309776
  C         9.8144167657        7.5345433590       16.9044231933
  C        10.0925520545        5.3697972931       15.7308049463
  H         2.6462747361        4.3375206797       28.6306879347
  H         2.3869861310        6.0735640233       28.8145611022
  C         1.2904371380        5.0142226814       30.2782876658
  H         4.9129101205       -1.3034932917       32.7574620013
  C         4.8102196230        0.2501967222       33.9511933268
  H         5.1794510864        0.3878461027       18.9711333933
  H         5.9410331927        1.3509891657       17.7052411376
  C         4.0923262650        2.0734301197       18.0548918568
  H        12.3493509526        0.9234022259       22.2223925075
  H        12.5275274150        1.0457368848       20.5266832353
  C        13.5947957695        2.4635237028       21.4916943440
  N         9.5775318237        8.4350390470       17.9567345663
  C        10.2667649806        8.1744984161       15.7516725028
  C        10.3628700423        5.9999661102       14.5646789417
  H        10.1831549994        4.3265467726       15.6904203126
  H         0.4218727407        4.4190969970       30.5043196756
  H         2.0663112360        4.6788146463       30.9691879993
  H         1.0990581576        5.9878563921       30.6433844573
  S         4.5454120179        1.9386809862       34.3134829328
  C         4.6400196586       -0.7167386490       35.0149596442
  H         3.8388735591        2.7918520066       18.7639415294
  H         4.2371988873        2.6037502022       17.1105222998
  C         2.9235214047        1.0565788026       17.7835339078
  H        13.4332802594        3.3998499105       20.8848609759
  H        14.3776499232        1.9553771532       20.9935925399
  C        14.0630656254        2.8039805385       22.8514289114
  S         9.8674468723        9.9696720966       17.4226665436
  N        10.3997099904        9.5791649194       15.9328931471
  C        10.5071611607        7.4953757067       14.5146424223
  H        10.7237664059        5.4308118680       13.6771552323
  C         4.3689102812        1.3329810252       35.9753546738
  N         4.2661885225       -0.0212587716       36.1201111670
  O         4.7339059476       -1.9305015857       34.9442878705
  H         2.0640445355        1.6522893141       17.3992149824
  H         2.5163279285        0.6687195001       18.7163302764
  C         3.1103393684       -0.2354722763       16.8620783400
  H        14.7051260258        3.7324771514       22.7324831849
  H        13.2906388166        3.0655189778       23.5978750582
  C        14.9933515963        1.6699531551       23.3038155175
  C        10.8417699210        8.1916057644       13.2634642542
  S         3.9382045479        2.3550818925       37.2718991601
  C         4.2330004469       -0.5966854906       37.4709835205
  H         3.1616514666       -0.0597997515       15.7589587411
  H         4.0849560967       -0.6790314138       16.9990418228
  C         2.0409089897       -1.2841656902       17.1645623811
  H        15.0648249770        0.9083356761       22.5320131895
  H        14.5792157738        1.1900034224       24.2003720626
  C        16.4020667064        2.1462230438       23.4719468520
  H        10.4585267785        9.1215380998       13.2191049438
  C        11.4827928864        7.8397755355       12.0938081692
  H         3.4032011777       -0.2855553357       38.1457046364
  H         4.0020195239       -1.6600043747       37.2811702036
  C         5.6452591229       -0.5458231459       38.1626742675
  H         2.1138767121       -2.0708597717       16.4482042381
  H         1.1350347080       -0.8147597535       16.8829618561
  C         1.8822642777       -1.8929546524       18.5878567303
  H        16.4435111697        3.0638720066       24.0640351505
  H        17.0824692938        1.4018166625       23.9753571004
  C        17.0843765937        2.5120526941       22.1783437396
  S        12.3579074575        6.3303415739       11.8588740874
  C        11.6875842240        8.8339173418       10.9776832532
  H         6.2309998817        0.2727017724       37.7999162713
  H         5.5307599924       -0.5880691843       39.2741626512
  H         6.0794809980       -1.4594189644       37.8000839144
  H         1.3135512224       -1.3140460575       19.2425368656
  H         2.9366917789       -2.0944694992       19.0205376386
  H         1.4428291346       -2.8843760481       18.4952856470
  H        16.5582299685        2.0306763468       21.3046536724
  H        18.0967306100        2.3068879625       22.1103175417
  H        17.0676303948        3.5927053166       21.9975871833
  C        12.8731929361        7.0365721366       10.3118986329
  N        12.5168514707        8.3105228005       10.0432385153
  O        11.2224592994        9.9979937869       11.0337211811
  S        13.7603137062        6.2118218540        9.0463485690
  C        12.5759441856        9.0183844406        8.7593473197
  H        12.4515864225       10.0392558019        9.0599743907
  H        13.5859368855        8.9090149348        8.3561102271
  C        11.4863051909        8.5684214389        7.8114403168
  H        11.2137531439        9.3456637825        7.0880993991
  H        11.8424335673        7.6961834509        7.2476090641
  H        10.5422406815        8.4366189726        8.3640411623
  H        20.8216537452       11.5862562755        3.2036236396
  C        21.3863660796       10.6268960723        3.1640629511
  H        20.6943352459        9.8123884050        3.1781666603
  C        22.3801532152       10.4400703535        4.3011974734
  C        21.9731306725       10.4311341579        1.7980745591
  C        21.7502061825       10.5836559609        5.6604128731
  H        22.8296708481        9.5268167465        4.3150998941
  H        23.2033523874       11.1319060461        4.4590953489
  H        21.2789395453       10.7587005621        1.0082365936
  H        22.1993980579        9.3522161157        1.5477487340
  H        22.8464913429       11.1396623366        1.6877677418
  C        21.0548504779        9.3299203769        6.1068001056
  H        22.5375651508       10.7192943311        6.4123710359
  H        21.0853062233       11.4184222841        5.7412833917
  C        20.4763782682        9.4978266349        7.5397277798
  H        21.8151163338        8.4988226712        6.2198481000
  H        20.2244806022        9.0327446959        5.3862748846
  C        19.1799450476       10.2807092808        7.6778871963
  H        21.2723148904        9.9046475266        8.1201202925
  H        20.3524143619        8.5515817059        8.0160065381
  C        17.8823343193        9.5556120082        7.2876675767
  H        19.1847003254       10.5460891488        8.7259727036
  H        19.2313134878       11.0934413381        7.0947920932
  C        16.6617626794       10.5254005240        7.0672081213
  H        17.6425336492        8.8700855092        8.1523844896
  H        17.9988853759        8.9984281211        6.3687471175
  C        16.9670789642       11.8763779100        6.3872603274
  C        16.2452330936       11.1770216725        8.3366597723
  C        15.4947509245        9.8309737561        6.3435781200
  C        16.5606129538       12.9439200341        7.1634601261
  C        17.5860438546       12.1662227775        5.1305901432
  C        16.2137500334       12.5406201920        8.3953244761
  C        15.7730864405       10.4511962498        9.4567441036
  H        15.9793351596        9.3541902224        5.4487172329
  H        15.1723839643        9.0196858127        6.9734482439
  C        14.2507217265       10.7576808108        5.9656262277
  S        16.9029988140       14.4263413587        6.3606464819
  C        17.4912405991       13.5500513248        4.9026885172
  H        17.9777388264       11.3367866119        4.5397670908
  C        15.7305262762       13.1378947482        9.5226276795
  H        15.7974990859        9.4254125586        9.4534185721
  C        15.3348367542       11.0679597209       10.6234365950
  H        14.6494332267       11.7185191975        5.5530558639
  H        13.8107328731       11.0240143316        6.8753609958
  C        13.3204828210       10.0250947632        5.0166226348
  C        17.8322429217       14.1873259007        3.5753981189
  C        15.3129408517       12.4438283649       10.6827614542
  H        15.6892458463       14.2168837157        9.5930633024
  C        14.8660956652       10.6746205016       11.8222634416
  H        12.4465192072       10.6885876733        5.0402643702
  H        12.9105225941        9.0296204415        5.4055481415
  C        13.8443620138        9.7870914610        3.6267597392
  C        17.7562486096       15.5551742692        3.3585402254
  C        18.2737969686       13.4094387505        2.4509493792
  C        14.9078820305       13.2103030496       11.9014279141
  C        14.6137113982       11.8311300119       12.5930530616
  S        14.5953307029        9.2135572196       12.6597748367
  H        14.5331060364        8.9246487146        3.6523333248
  H        14.4865563280       10.5964276063        3.4098032436
  C        12.7024433094        9.7562824460        2.5681267986
  N        17.4386836051       16.5878920792        4.2842933671
  C        18.1285736034       16.1039682150        2.1556385703
  C        18.5746690748       13.8880093612        1.2129440288
  H        18.4930456403       12.4035483541        2.7401690561
  C        13.7687628125       14.1822766044       11.7586936702
  C        16.0564721826       13.9868965799       12.5032920266
  C        14.0869677492       11.5085464365       13.8921580056
  C        13.9896747859       10.1231845973       14.0718881904
  H        12.1371019948        8.9684270178        2.8831528774
  H        12.2067023861       10.6871006002        2.5812463944
  C        13.1912697429        9.2435740861        1.2046108848
  S        17.6757566131       18.0362877017        3.6156919989
  N        17.9661252986       17.4669700430        2.1312358383
  C        18.5138648616       15.3746470666        0.9898506225
  H        18.9517225060       13.1504694465        0.5095988805
  H        13.9564848779       14.9091241423       11.0184988339
  H        13.7124126518       14.9425629395       12.5963565284
  C        12.4436541926       13.4643886149       11.3571517870
  H        16.1989275666       14.8811274460       11.9825887934
  H        15.6313573109       14.3357575440       13.4791203486
  C        17.4219323595       13.3924440844       12.6126503960
  H        13.9533306351       12.2871777759       14.5500861875
  C        13.7349158134        9.4992207780       15.4237369010
  H        12.4457751750        8.5993381659        0.6774266647
  H        14.0995561218        8.7127577214        1.4201889116
  C        13.5786695153       10.3745791957        0.3024951180
  C        18.7448372382       16.0876693276       -0.2603837388
  H        12.6762137745       12.7963907345       10.6259936509
  H        12.0705730400       12.9641628906       12.2502363576
  C        11.3364599789       14.3959211621       10.8666656404
  H        17.9063800769       13.1554654429       11.6633023773
  H        17.2450973338       12.4817844571       13.1145067007
  C        18.3915299058       14.1552586524       13.4711768909
  C        13.7186568746        8.1365447276       15.5917826879
  C        13.4388272301       10.3600688119       16.5897541188
  H        13.6386331698       11.3275649454        0.8331657009
  H        14.5322916579       10.2157334899       -0.1755052038
  C        12.6488913435       10.6234649378       -0.8306582835
  H        18.6884163210       17.1375486960       -0.2062164249
  C        19.1084727830       15.7216952120       -1.5350433023
  H        11.7837889451       15.1922382006       10.2034638483
  H        10.9031662777       14.9522226981       11.7312229193
  C        10.1904827689       13.5356882093       10.2790817414
  H        19.0454045689       14.9290812586       12.9307174699
  H        17.8806770194       14.8109624991       14.1744628878
  C        19.3360567790       13.2892392785       14.2717064749
  N        14.0402388601        7.1421745066       14.6647992567
  C        13.3678482528        7.5971595662       16.8280186263
  C        13.1027063908        9.8188841675       17.8490606544
  H        13.4730242846       11.4212271356       16.5292603014
  H        12.9446169725       10.0357102445       -1.6600143554
  H        12.6074615400       11.6948956026       -1.0510401016
  H        11.6023681425       10.3058648384       -0.5410830556
  S        19.5237265114       14.1282228287       -2.1382191798
  C        19.2722494959       16.8201202037       -2.5387753423
  H        10.5842926707       12.7108696035        9.7024807904
  H         9.7287708138       12.9577762018       11.0184296873
  C         9.1971537061       14.2459194214        9.4012898957
  H        19.1953882907       12.3266280154       13.7075008055
  H        19.1372225025       13.2394112182       15.3183117235
  C        20.7653499816       13.6750435683       14.2903822432
  S        13.7447791835        5.7009127866       15.3637689302
  N        13.3025271708        6.2194704505       16.8285537400
  C        13.0655152855        8.3458598735       18.0198210770
  H        12.8148016427       10.5076399011       18.6464831506
  C        19.7568090108       14.9771310169       -3.7213155550
  N        19.6638940689       16.2836346745       -3.7067455869
  O        19.1943274849       18.0518613418       -2.3226526504
  H         8.5034363533       15.0136341355        9.8955180618
  H         9.8375010595       14.8398509894        8.7226795654
  C         8.3566070889       13.2875761536        8.6484468718
  H        21.3116194102       12.8133192220       14.7121011600
  H        21.1566649912       13.8046073334       13.2705654552
  C        20.9712596511       14.8971223437       15.1463184796
  C        12.5974242391        7.6603105906       19.1711748878
  S        20.2759577060       14.2484177372       -5.2608718702
  C        19.6023928927       17.0341084091       -4.9733752987
  H         8.9791906383       12.9028352029        7.8438570786
  H         8.1132423951       12.4408717597        9.3367251698
  C         6.9740977067       13.8550724591        8.1460686781
  H        21.6183396725       14.7388973271       16.0823838977
  H        19.9772124947       15.1488232378       15.6294630462
  C        21.4424154586       16.0897851815       14.3504001000
  H        12.7746451048        6.5724520093       19.1157991284
  C        12.0662005703        8.1301358100       20.3703850268
  H        20.4134722352       16.7679148370       -5.6431912304
  H        19.6292814364       18.1065135492       -4.7097236567
  C        18.1966709238       16.8351878810       -5.5193432729
  H         6.4950807646       13.2394995045        7.3679885135
  H         7.0692249828       14.8748960150        7.6856827111
  C         5.9570307228       13.8871767549        9.2422248641
  H        22.4762382623       16.0521937073       14.0336221839
  H        21.0151667576       16.2452742622       13.3890667384
  C        21.2623795444       17.3680766393       15.1234923863
  S        11.6586594666        9.7235041557       20.7962247049
  C        11.8035611238        7.0882362134       21.4777936346
  H        18.0717852667       16.0461740028       -6.2827223057
  H        17.8591973412       17.7452206036       -6.0851692877
  H        17.5013258527       16.4997867221       -4.8231843933
  H         5.8920203974       12.9317171081        9.7497748932
  H         6.1019725993       14.6022425932       10.0162771760
  H         5.0408231536       14.2794810173        8.8659621422
  H        20.2333618129       17.6941686753       15.0645009507
  H        21.4652234588       17.2781904234       16.1981802923
  H        21.9343907313       18.1240497967       14.6976860229
  C        11.1974624706        9.0399070103       22.4061793707
  N        11.2338496825        7.6966852476       22.5303869836
  O        12.1419118388        5.9622165179       21.4166220160
  S        10.6124992225        9.9665974489       23.7358903899
  C        11.1838014280        7.0513711049       23.8444309553
  H        10.8062314394        6.0166070554       23.7806399309
  H        10.4169716300        7.4985784541       24.5014621694
  C        12.4808745828        7.0213587283       24.6474792275
  H        12.6599559402        7.9900338422       25.0476452822
  H        13.2161277645        6.7506052742       23.9260612658
  H        12.5104756273        6.2837957529       25.5143075930
