352
 i =    89900, time =    89900.000, E =        25.2099472260
  H        10.2363055461        7.4539433601       31.1841328432
  C        10.8837260205        6.7374674498       31.6970977687
  H        11.7055135627        7.3544585752       32.0499388129
  C        11.4056800262        5.6989194291       30.7168403181
  C        10.1666525979        6.1684425210       32.9255382585
  C        10.3662811169        5.0993350898       29.7595335199
  H        12.0611561439        6.1539756067       30.0026452663
  H        11.9135350532        4.9101191586       31.2911593626
  H         9.1267223901        6.3006885889       32.8745147412
  H        10.3082804326        5.1021599733       33.0596681681
  H        10.4404811991        6.8023857521       33.8128768864
  C        10.0293610963        6.0574112405       28.6159159915
  H         9.4634810316        4.9569607081       30.3648151464
  H        10.6580449644        4.0899809518       29.4983945099
  C        10.4294606687        5.5724270661       27.1810611730
  H         8.9723209898        6.2761656657       28.7609035490
  H        10.5390626063        7.0194964291       28.6738375578
  C         9.3191760885        4.8551386353       26.4140061711
  H        11.2062479215        4.8005771381       27.2410281434
  H        10.6441042452        6.4686187396       26.6057845071
  C         8.0631225568        5.7412080928       26.1168674609
  H         9.8314698711        4.4478258710       25.5578222939
  H         8.9698870521        4.0061588546       26.9675404118
  C         6.9458932765        4.9386643746       25.3761000873
  H         7.5927320117        6.2732614195       26.8961681152
  H         8.4611998000        6.5123614728       25.4175713846
  C         6.6157956703        3.5912397156       26.1112025450
  C         7.4677008814        4.1744846162       24.1785568184
  C         5.6149728735        5.5028667527       24.9782347232
  C         6.9773519824        2.5211046520       25.3651337609
  C         6.1480401059        3.2785101793       27.3984582864
  C         7.5900389188        2.8661951013       24.1684763977
  C         7.8697734976        4.8484388187       23.1165963216
  H         5.0454510051        4.7226709081       24.3673127048
  H         5.8651169176        6.3969017759       24.3290202713
  C         4.8072437298        6.0180480136       26.0946267486
  S         6.7141032882        1.0647852755       26.2332021599
  C         6.1242627693        1.9648471131       27.6215559455
  H         5.7744406119        4.0755417011       28.0426342605
  C         8.0539309100        2.2548602537       23.0856014701
  H         7.7200052552        5.8860197332       23.1008026856
  C         8.3613773725        4.2228663757       22.0200434178
  H         5.1670729052        5.6423081920       26.9949806041
  H         4.9823900424        7.0952854557       26.2803624468
  C         3.3933214106        5.4463722256       25.8524741721
  C         5.7339608903        1.3241630911       28.9126490878
  C         8.4085454563        2.8905303029       21.9111697200
  H         7.8136138893        1.2109155292       22.9825999020
  C         8.8859910165        4.6136081182       20.7846206133
  H         3.3784187710        4.4002957565       25.6198494432
  H         2.9432891575        5.7418658394       24.9383702825
  C         2.4665985993        6.0462897320       26.8862568905
  C         5.8669502685       -0.1023351181       29.2063391073
  C         5.3368458040        2.1732276873       30.0456655361
  C         8.7420392844        2.1954687316       20.6132930572
  C         9.0022295333        3.5517596096       19.9236861544
  S         9.1339362993        6.0928685541       20.0092941632
  H         1.6229155078        6.5990493341       26.4104845806
  H         3.1368879443        6.6684527819       27.4917925883
  C         2.0391401959        4.8202676508       27.7631004375
  N         6.2002515932       -1.1255292725       28.2143083771
  C         5.6563683673       -0.6819979951       30.4209672918
  C         5.1302790756        1.5874246689       31.2935512017
  H         5.1099794484        3.2057194962       29.9585775338
  C         7.5489688522        1.4075504085       20.0489292066
  C        10.0743100706        1.3560878751       20.6678060734
  C         9.1791845993        3.9397011853       18.5504117841
  C         9.4760622208        5.2783088391       18.4348539385
  H         1.5537118626        4.1350852664       27.0375680091
  H         2.8945751813        4.3962567527       28.2269803062
  C         0.9161980413        5.1378785773       28.8597090327
  S         6.1403383628       -2.5591110991       28.8794276942
  N         5.7628592270       -2.0642847155       30.4124545842
  C         5.3472238550        0.1241241565       31.4958435920
  H         4.8822632248        2.2742571889       32.0756136787
  H         7.2931581334        0.5322657125       20.7070924220
  H         7.7288625360        0.8952696281       19.1001576642
  C         6.2939301416        2.2642296602       19.8307929495
  H        10.2640364058        0.6461333492       19.8383468434
  H         9.8068541187        0.5964532319       21.4438761887
  C        11.3624519409        2.1023912265       20.9611687251
  H         9.3071023661        3.1898062656       17.8318334253
  C         9.6512393470        5.9706930431       17.0938519604
  H         0.5290524011        4.1715063257       29.1521407207
  H         0.0767033838        5.6829005372       28.4688062123
  C         1.4520168737        5.7313241250       30.2008127559
  C         5.0778739872       -0.4672460383       32.7644138840
  H         6.4391260692        3.0129597700       19.0564744772
  H         5.9533834878        2.7900728015       20.7294415551
  C         4.9584484634        1.5221416811       19.5411343391
  H        11.1242893238        2.7553268286       21.8540011396
  H        11.4986431892        2.8190427474       20.1262765179
  C        12.6278210583        1.2717355388       21.1636300223
  C         9.7206135608        7.3545749797       16.9833329828
  C         9.7896779589        5.2101481355       15.8670959898
  H         2.2116999552        6.4886476411       30.1139255300
  H         0.6424708746        6.3194297582       30.6580860682
  C         1.8492640946        4.6747856120       31.2371047543
  H         5.2483337365       -1.5119956455       32.7478083092
  C         4.7469255176       -0.0357045513       34.0149471411
  H         4.2633573436        2.0336765721       20.2710920025
  H         5.0855742478        0.4460476637       19.7176639142
  C         4.4711014157        1.6856953015       18.1145286056
  H        12.5296871712        0.4366867142       21.8844623913
  H        12.9439739902        0.7617483685       20.2225600213
  C        13.8043644081        2.1610527715       21.5974372363
  N         9.6597153718        8.2095391717       18.1139902258
  C         9.9633111965        7.9961403584       15.8154471124
  C        10.1624272289        5.8037580995       14.6821533233
  H         9.6619175157        4.1349444881       15.8638439142
  H         2.4103867993        5.1346983407       32.0215029066
  H         1.0449607712        4.1760694756       31.8311796398
  H         2.3498814151        3.8461546769       30.8337178324
  S         4.4066029192        1.5328381668       34.4465707546
  C         4.6064619958       -1.1230241426       35.0249138624
  H         4.2480365851        2.7475349441       18.1162414510
  H         5.3233353067        1.5289076829       17.4854004446
  C         3.2875343882        0.8132860202       17.7248535091
  H        13.5141760080        3.1706866604       21.8706468175
  H        14.5460080887        2.4086843722       20.7799361747
  C        14.5566218231        1.5673389448       22.6633269429
  S         9.5883097299        9.7146642252       17.4906722457
  N         9.9159925316        9.4224124170       15.9147187944
  C        10.2384261989        7.2450211168       14.6118190362
  H        10.2722506221        5.1667329470       13.8405344217
  C         4.1899827780        0.8943295087       36.0975287845
  N         4.2869256232       -0.5027611173       36.2028226902
  O         4.7302968588       -2.3692232057       34.8208965249
  H         2.7232073474        1.2843504949       16.8734735539
  H         2.6397741036        0.6734477403       18.5693050618
  C         3.7937401785       -0.5632849067       17.2451065746
  H        13.8209212961        1.2593605130       23.4597628704
  H        15.0476890793        0.5674659816       22.3394621260
  C        15.5991029736        2.4285127181       23.4190575177
  C        10.6518187174        8.0138023544       13.4159527784
  S         3.8088910609        1.8072303958       37.4665350416
  C         4.1815170356       -1.2485357290       37.4788126088
  H         3.5962699856       -0.4910377868       16.2093399480
  H         4.8811702287       -0.5261723565       17.4380560561
  C         3.1280353889       -1.6865229573       17.9989392320
  H        15.0418926873        2.8639558298       24.2195454895
  H        15.8653648382        3.3341961149       22.8788401891
  C        16.8744773770        1.6453460387       23.8046687944
  H        10.5609142789        9.0560268434       13.5512304603
  C        11.1305541514        7.6868780728       12.1949502664
  H         3.6850156028       -0.7274261274       38.2597575344
  H         3.7693609328       -2.2960354290       37.3597449549
  C         5.6726723213       -1.5229180572       37.9493718591
  H         3.0368402365       -1.4138024554       19.0479931475
  H         3.7799132994       -2.5882174739       17.8756888260
  C         1.8986729679       -2.0871649515       17.1940361848
  H        17.1621161966        2.2906238750       24.6736156022
  H        16.5901317737        0.6445516798       24.0102446115
  C        17.9369351497        1.7545787022       22.7576589338
  S        11.8252062889        6.2099988672       11.6337627413
  C        11.2054731518        8.8312965918       11.2248912647
  H         6.5325698918       -1.1294416127       37.3795728303
  H         5.8219927712       -1.2635863351       39.0258436095
  H         5.8814199925       -2.5928988208       37.8786304575
  H         2.0059813401       -2.5189281373       16.2035946257
  H         1.0731092455       -1.4124839386       17.0904417246
  H         1.3285970571       -2.7724298244       17.8424075955
  H        17.6045829091        1.0538716342       22.0383667697
  H        18.9845043879        1.5388372340       22.9998442753
  H        17.8685603376        2.6279592357       22.1835629537
  C        12.0261486050        7.0223101013       10.0946714492
  N        11.7588355739        8.3844111293       10.1074903198
  O        10.6973491176        9.9417421361       11.3672808883
  S        12.5043829576        6.2677227957        8.5367326434
  C        11.9779352637        9.3119853447        8.9892571778
  H        12.4225034165       10.2456844909        9.4572227294
  H        12.8266893088        8.9066235960        8.3276259246
  C        10.7193140194        9.7311912145        8.1972008063
  H        10.9504206017       10.5908673002        7.5663459300
  H        10.3825862960        8.8736015560        7.6491553901
  H         9.9298060642       10.1162442135        8.8690684219
  H        21.4835659970       10.5646123263        2.9646720600
  C        22.0988178316        9.7008909327        3.1333931539
  H        21.3442405848        8.9106848955        3.2720804759
  C        23.0265060309        9.8558564791        4.3422707653
  C        22.7768379914        9.4046535928        1.8370904031
  C        22.1394947391       10.1278674460        5.5588041400
  H        23.7012987236        8.9928790078        4.5167735071
  H        23.6749401244       10.7331126535        4.0615394583
  H        23.5325474263        8.6169087085        1.8285857681
  H        23.2328504395       10.3557599966        1.6133639490
  H        21.9403030844        9.3133710762        1.1913363973
  C        21.5031483379        8.8694712005        6.1895268715
  H        22.7229338281       10.7293103863        6.2363040855
  H        21.2290194618       10.7202289285        5.2650216314
  C        20.4040033746        9.3137614952        7.1253995734
  H        22.2836136656        8.3150809062        6.7299899210
  H        21.1726795776        8.1382619930        5.4868173749
  C        19.0013290013        9.4457531326        6.4536451826
  H        20.6664306464       10.2276104185        7.6333670711
  H        20.2590087445        8.5196531489        7.8991315705
  C        17.9188550737        9.8973314690        7.5073774376
  H        19.2712547506       10.1639534567        5.7236359155
  H        18.6742651245        8.6258001960        5.8215317834
  C        16.5980690361       10.4686756972        7.0681765341
  H        18.2658054388       10.7215855357        8.1677795582
  H        17.7540936361        8.9898340755        8.0908513146
  C        16.9557852260       11.6976176154        6.4153739425
  C        15.9641461220       11.1320589992        8.2404305617
  C        15.6755731925        9.6202101330        6.2024224831
  C        16.5751339469       12.7963119996        7.1109937045
  C        17.5980801525       12.0454727116        5.2152400672
  C        16.0029648554       12.4662037675        8.2990023698
  C        15.4185296273       10.4147006704        9.3195071565
  H        16.1616351940        9.2792086753        5.2711766696
  H        15.4030837848        8.7521793983        6.8482465467
  C        14.2976075948       10.3508595996        5.9688015936
  S        16.8601253606       14.2609734842        6.3019636553
  C        17.6436448840       13.4403101019        5.0078744781
  H        17.7967390694       11.2932193579        4.5171569706
  C        15.5488451984       13.0763555938        9.4582978228
  H        15.4275601377        9.3762281846        9.1719365806
  C        14.9515500299       11.0301685045       10.4682682181
  H        14.2606846682       11.2978933110        5.4379716491
  H        13.8802307188       10.5448230905        6.9478675667
  C        13.2640049307        9.5903716960        5.1337728313
  C        18.1262043715       14.1121657880        3.7252426401
  C        15.0383883103       12.3924064373       10.6027919827
  H        15.5849281270       14.1288267068        9.5353261576
  C        14.4662262782       10.6891088402       11.6839313930
  H        12.3212211554        9.6008983644        5.6361854247
  H        13.6819755670        8.5572747076        5.0024134836
  C        13.0598000720       10.2141376084        3.7355310584
  C        18.0291916074       15.5024498115        3.4089635722
  C        18.5924648944       13.2011607970        2.5781770230
  C        14.5666773948       13.1424419386       11.8277377670
  C        14.1878439261       11.7511262867       12.5371353044
  S        14.1757678016        9.1540400392       12.4130673234
  H        13.2719430244       11.2700510920        3.7633486228
  H        12.0707101630       10.1763484780        3.3763365048
  C        13.9652291586        9.5890129865        2.7211138638
  N        17.5460931838       16.5324179656        4.2716093726
  C        18.3092959601       15.9190287490        2.1335326494
  C        18.8841030153       13.7723961407        1.3379037131
  H        18.8994885552       12.1463615472        2.5930660251
  C        13.3762809052       14.0021415976       11.4937441929
  C        15.6652150440       14.0159584828       12.5375124316
  C        13.8846159547       11.3599117865       13.8789752110
  C        13.8047461246        9.9643468589       13.9337882556
  H        15.0138134665        9.6593671387        3.0414185004
  H        13.6929056872        8.5475441616        2.6196815305
  C        13.9494101096       10.1454528103        1.3307339590
  S        17.8156092152       17.9572244502        3.4144343965
  N        18.3158272714       17.3081271097        2.0111358540
  C        18.6259563407       15.1595375703        1.0366266089
  H        19.3692667769       13.0948754589        0.6144148669
  H        13.6273293341       14.9229540428       10.8686008070
  H        13.0067184640       14.3571205847       12.4066553376
  C        12.2162516626       13.3412156255       10.8442899684
  H        15.9134643936       14.7322618176       11.7127938775
  H        15.2633795916       14.7112105085       13.2592531679
  C        16.9733339442       13.3908050589       13.0699708031
  H        13.9540465056       12.1408596571       14.6710899514
  C        13.4297272724        9.2657274818       15.1424813315
  H        14.8088847175        9.8995602281        0.7427005436
  H        13.7990542369       11.1922962100        1.3700005018
  C        12.8534047532        9.5216179775        0.5287176671
  C        18.9217228060       15.8485709196       -0.2241247573
  H        12.5928906473       12.8675239171        9.9419605205
  H        11.8466718536       12.5410773802       11.4567120437
  C        10.9674299453       14.1750380626       10.5200582769
  H        17.3684710387       12.7557911285       12.3279178632
  H        16.7309872850       12.7193264260       13.8956373218
  C        18.1456653984       14.3504876102       13.3537427679
  C        13.5059456655        7.8341380486       15.3051812387
  C        13.1824473221       10.0649456540       16.3820893520
  H        13.0687456258        8.5097149438        0.2237963416
  H        11.9009368478        9.4965118742        1.0537924144
  C        12.6532061037       10.1225571874       -0.8821707761
  H        18.6229215545       16.8887754341       -0.1749094840
  C        19.1983887187       15.4348297396       -1.5014275795
  H        11.2856176007       15.0137669007        9.8936115177
  H        10.5312991288       14.6771364938       11.3439035004
  C         9.8817302954       13.3388876153        9.7414978184
  H        18.6897454368       14.6725656370       12.4662493005
  H        17.7221584324       15.2383792754       13.8968391152
  C        19.0991819115       13.7682528511       14.4012491127
  N        13.7858533948        6.9307480260       14.3068559132
  C        13.3093816572        7.2251917161       16.5303344899
  C        12.9071392912        9.4288546541       17.5716230922
  H        13.2801599429       11.1147702838       16.3271109486
  H        11.7189424418        9.9735138261       -1.3759237542
  H        13.4631610051        9.7308634655       -1.4739442408
  H        12.7845071543       11.2247382861       -0.8417737120
  S        19.6444684541       13.8817614341       -1.9576262446
  C        19.2860538461       16.4021688581       -2.6166661145
  H         9.5287806817       13.9577657274        8.9095491399
  H        10.2237270267       12.4926122563        9.2246853801
  C         8.5910425446       12.9569020924       10.5683732941
  H        19.5790153414       12.8912622483       14.0244992737
  H        18.5154730576       13.4703301804       15.2924167036
  C        20.0016055964       14.8702873503       14.9568817954
  S        13.9100602718        5.3856490156       14.7766722269
  N        13.5009256123        5.8669000069       16.3229084401
  C        12.9103131789        7.9616799242       17.6680428987
  H        12.9311569929        9.9632995485       18.4664051325
  C        20.0300444728       14.4920602054       -3.5475173701
  N        19.7701019960       15.7826093902       -3.6941164583
  O        19.0442033550       17.6265355570       -2.5191440938
  H         8.9507340098       12.3607377195       11.3905525935
  H         8.2731011952       13.8370617354       11.0288013607
  C         7.5200769791       12.2361601254        9.7570299179
  H        19.6998349808       15.9072215314       14.5184741898
  H        19.7303695224       15.0395337747       15.9725128725
  C        21.5072880762       14.8439333099       14.7534862247
  C        12.7278056680        7.2257499967       18.8773617476
  S        20.2849612458       13.6746548910       -5.0887436649
  C        19.7733692056       16.5348367590       -4.8774327477
  H         7.9599418580       11.6585959409        8.9807745154
  H         7.0076326336       11.5131103809       10.3618345577
  C         6.4822809913       13.2681542166        9.2059008038
  H        21.7773216404       13.9509628650       14.2536230704
  H        21.8938926646       14.8476837181       15.7246438728
  C        22.0699349071       16.1522766094       14.0669531363
  H        12.9864065465        6.1526436096       18.7225047165
  C        12.2012167120        7.4378798238       20.1186904581
  H        20.4986641914       16.1527626242       -5.5686079806
  H        20.0527601938       17.5688689345       -4.6764939888
  C        18.4253612260       16.4806282456       -5.6401884465
  H         6.4267029499       14.1155595881        9.9207089351
  H         5.5775879071       12.7072360109        9.1385752164
  C         6.8194296102       13.7677085488        7.8015130114
  H        23.0622483036       16.1389701566       13.6785844862
  H        21.4222019647       16.2865265161       13.1893295097
  C        21.9701743747       17.3819009936       14.9012108865
  S        11.4123225150        8.8038316987       20.7673871744
  C        12.3034152432        6.2636027716       21.0684933585
  H        18.0712352636       15.4754469181       -5.6594591546
  H        18.6236706253       16.9542874193       -6.5834442234
  H        17.6545268313       17.1804998891       -5.2993598660
  H         5.8095011080       13.9243321594        7.3036347479
  H         7.3117429871       14.7064963503        7.8113651701
  H         7.3507580503       13.0237683999        7.3426722972
  H        22.2615060773       18.1737297086       14.1955144929
  H        20.9443167998       17.5382400584       15.1738660484
  H        22.6792195482       17.4587651689       15.7349189863
  C        11.3261346315        7.8816177513       22.3426310988
  N        11.6623725351        6.5685963868       22.2432653165
  O        12.7110271105        5.1521246668       20.6775062259
  S        10.7352989975        8.6189788463       23.7928761664
  C        11.5215047149        5.5815868720       23.3703838356
  H        11.2757156750        4.5591512775       23.0903241046
  H        10.6591896185        5.8832234341       23.9614887763
  C        12.8213669123        5.5568147749       24.2536177930
  H        12.8569604693        6.2411119909       25.1021356994
  H        13.6430545197        5.8422267332       23.6273075003
  H        12.8937834944        4.5587107378       24.6968882217
