352
 i =    19400, time =    19400.000, E =        25.6264033739
  H        11.8196960267        7.1360194806       31.9494962228
  C        11.1052223245        6.3058980116       31.8684883787
  H        11.7508631212        5.5198955063       31.5125079075
  C        10.0050088867        6.5809587641       30.9032338060
  C        10.6643835682        6.1136608373       33.3609144061
  C        10.5474563953        6.7773785849       29.4692095125
  H         9.1947678413        5.8781822770       30.9273931148
  H         9.5931406717        7.5468235203       31.2737009312
  H        10.3165453397        7.0757686617       33.6966837993
  H         9.9154439853        5.3939943722       33.3488244954
  H        11.5461661659        5.7829226149       34.0116141710
  C        10.5480537698        5.4953457584       28.6481095961
  H        11.5885245211        7.2144519650       29.5600657913
  H         9.9080714395        7.5532592108       28.8811706941
  C        10.8901418403        5.7492510601       27.1842919338
  H        11.5153557405        4.9554712770       28.9260845959
  H         9.6630361713        4.9289898721       28.7906536706
  C         9.7932417974        5.3255601652       26.2985320955
  H        11.7867923525        5.1708629913       27.0360199897
  H        10.9449559820        6.8013655098       26.9173802465
  C         8.5282308480        6.2258739260       26.2631991257
  H        10.1843548615        5.2174670944       25.3278849662
  H         9.4226798579        4.3798413686       26.6956267842
  C         7.2644727958        5.5758700312       25.5156767453
  H         8.2588726980        6.5837251146       27.2388275474
  H         8.7186699752        7.0475106958       25.5941298078
  C         6.8288119395        4.2848668576       26.2408127999
  C         7.7040486637        4.8058006197       24.3804891476
  C         6.0817636015        6.5399628120       25.2870586894
  C         7.1140932504        3.1313581827       25.4506134662
  C         6.1632898043        3.9336764631       27.4357050930
  C         7.6815241455        3.4716211264       24.2518036381
  C         8.2172952852        5.5416375063       23.2493354751
  H         6.3737704320        7.2877936831       24.5211169831
  H         5.8845245021        7.0269789205       26.2559199236
  C         4.8304374172        5.8261769850       24.7549535161
  S         6.7410820921        1.6758957893       26.2009815376
  C         6.1823818041        2.5674791358       27.6402810711
  H         5.8963799165        4.7097773467       28.1399559259
  C         8.0162360076        2.8906540015       23.0861808455
  H         8.1955666471        6.6075447702       23.2560217805
  C         8.6514128924        4.9391044952       22.0782856275
  H         4.9265871232        5.3914544972       23.7779484572
  H         4.6285538194        4.9928053279       25.3567773821
  C         3.5108793788        6.6502201763       24.8398462934
  C         5.7654109741        1.8221293540       28.8374760185
  C         8.5582129782        3.5608255867       21.9832433366
  H         7.8506545468        1.8471148674       22.8773861005
  C         9.1371832460        5.3396013936       20.8360373589
  H         2.9512708646        6.3306992672       23.9470986383
  H         3.7655597158        7.6483365503       24.6186701809
  C         2.8107056489        6.6363999745       26.1843922100
  C         5.8019886445        0.4259334953       29.0504003599
  C         5.3953929265        2.5853110666       30.0717536114
  C         8.8675851770        2.8114947687       20.7088078510
  C         9.1544968729        4.2396311813       19.9727007708
  S         9.4514167207        6.7608918684       19.9390698920
  H         1.9165282209        7.2785722874       26.0983902919
  H         3.5191321083        7.1051404067       26.7789936285
  C         2.3123380126        5.3838640061       26.7759812292
  N         5.9546096682       -0.4623567941       28.0045732320
  C         5.5168241008       -0.2092490414       30.2382726231
  C         5.2038503438        1.9616900285       31.2752623443
  H         5.4161526127        3.6799276894       30.0148779570
  C         7.7176988726        1.8552570134       20.1306941811
  C        10.1492978748        1.9644099267       20.8233443857
  C         9.6029310137        4.5425603514       18.7033895430
  C         9.7817004935        5.8616030633       18.4880221273
  H         1.6516968700        4.9482367989       26.0698935678
  H         3.0670401617        4.6962049404       26.8347815167
  C         1.4689871769        5.6014407006       28.0486020943
  S         5.9882627683       -1.9664643819       28.6432471307
  N         5.5047252834       -1.5670568211       30.0963030039
  C         5.2508011926        0.5074838194       31.4455361826
  H         4.9630422437        2.5422284577       32.1088199038
  H         7.6062071343        1.0671289812       20.8984646792
  H         8.0739500069        1.4804105770       19.1827550900
  C         6.4163500857        2.5768332564       19.8596694339
  H        10.2899314128        1.3479250120       20.0079434883
  H        10.0469144866        1.2131489599       21.6316912998
  C        11.4692202367        2.6848603224       21.0514700329
  H         9.7782893050        3.6927615305       17.9778899154
  C        10.0987293907        6.4967771681       17.1447952675
  H         0.6684554424        4.8221305607       28.1055962999
  H         0.9145169445        6.5360990979       27.8371165661
  C         2.3436115437        5.5790280978       29.3706819447
  C         4.9026342961       -0.1475579337       32.5981534596
  H         6.4120506894        3.0995725825       18.9091820790
  H         6.2332371319        3.4121735240       20.6005118467
  C         5.2017177144        1.6305263049       19.8920094355
  H        11.4009218481        3.2389468936       21.9766282406
  H        11.6273404323        3.4278068395       20.3121296903
  C        12.6576866842        1.7274741593       21.1353230286
  C        10.1701953517        7.8609662321       16.9014754680
  C        10.3859666468        5.6069639966       15.9797360081
  H         3.0170502616        4.7473328129       29.2587823916
  H         3.0766402207        6.3800248956       29.3456516931
  C         1.4303487606        5.6862803177       30.5672822101
  H         5.1984314962       -1.1820924159       32.5410387600
  C         4.5689176760        0.2362370664       33.8653370536
  H         5.0601378081        1.2199221697       20.9190200683
  H         5.5043739881        0.7664097451       19.3114490529
  C         3.9598490719        2.3199159385       19.3685188104
  H        12.6519245193        1.1280924455       22.0213302023
  H        12.6604286772        1.0101566363       20.2536181275
  C        14.0477427514        2.4454118977       21.0232421503
  N         9.8932393846        8.8082642152       17.8612427024
  C        10.6557455878        8.3747101538       15.6871090991
  C        10.7947414275        6.1340005751       14.7299381926
  H        10.1293587858        4.5430800098       16.0680736489
  H         1.0150124085        6.6374264124       30.7684597736
  H         0.6623070257        4.8734713439       30.4731524803
  H         2.1062371959        5.4293395906       31.3705143910
  S         4.2300337186        1.8719142701       34.4800132803
  C         4.5818909980       -0.7834918122       34.9037630685
  H         3.6692457183        3.0772338644       20.0471842054
  H         4.0925260459        2.7504199656       18.3309896104
  C         2.8081931437        1.2818496965       19.1252811294
  H        14.1665697122        3.1493283722       20.1745264842
  H        14.7884765866        1.6525289988       20.7931383582
  C        14.4696154914        3.1125347795       22.3478863272
  S        10.0308661418       10.2305015996       17.1670435292
  N        10.7209843820        9.7316600300       15.7253512627
  C        10.9732335255        7.5470051254       14.5550327640
  H        10.9259586093        5.4589495097       13.9790036957
  C         4.1221316969        1.1129480726       36.0803084653
  N         4.2573796879       -0.2636192741       36.0653418302
  O         4.9159632782       -1.9751244676       34.7209385929
  H         1.8274553249        1.6778632929       19.1771277177
  H         2.8301464072        0.6084139881       19.9844582153
  C         3.0494692737        0.5485005043       17.7355619207
  H        15.0958029008        4.0188095189       22.2907736141
  H        13.5909878313        3.4910708037       22.8141736066
  C        15.0890616771        2.0791456938       23.2901566036
  C        11.2777779810        8.1917039440       13.2586092439
  S         3.6868564305        2.0073203641       37.5795257596
  C         4.2070006430       -1.0857728115       37.2273566313
  H         2.8105259216        1.1883450870       16.8831056206
  H         4.0818400707        0.2545379917       17.6048835996
  C         2.0927506487       -0.7578591283       17.7734518271
  H        15.0647007078        1.1300164200       22.8633450958
  H        14.4019372269        2.0304612655       24.1831775788
  C        16.5013451473        2.5176899678       23.7484611747
  H        11.0348693756        9.2581000451       13.2324220405
  C        11.6599676949        7.7219517562       11.9946276817
  H         3.3751227512       -0.7253864402       37.8625694710
  H         3.7861031981       -2.0699502007       36.9217519510
  C         5.4805936292       -1.0673908375       38.0028604153
  H         1.0135866087       -0.4384280587       17.9976866395
  H         2.4012568086       -1.2950061849       18.6913014401
  C         1.9547957731       -1.4908481724       16.4093309865
  H        16.4438111290        3.5863470926       24.1003685222
  H        16.9016908062        1.8615522487       24.5497087658
  C        17.5310308945        2.3445781163       22.6576325101
  S        12.3972984837        6.2101447195       11.6759853406
  C        11.6967335900        8.6814077153       10.7909277718
  H         5.4023833232       -1.7021051495       38.8363464048
  H         6.3155220235       -1.4142107313       37.4940378899
  H         5.6840357717       -0.0522772589       38.4580014292
  H         1.5420955044       -0.8033814502       15.7295161944
  H         1.3115539769       -2.3159522577       16.5626881488
  H         2.9470487157       -1.8933590866       16.2047170835
  H        18.4830277077        2.3917486760       23.1923217305
  H        17.4844277597        3.1923229976       22.0550886000
  H        17.3817971326        1.3235014262       22.2733595176
  C        12.6544472431        6.7804350038       10.0658482787
  N        12.3128621898        8.0349710961        9.8095587064
  O        11.1613218015        9.8162000180       10.7743842574
  S        13.1869104319        5.7419436002        8.7070397271
  C        12.3275573514        8.6750312088        8.4688505004
  H        12.8106067400        9.6399329422        8.4527584793
  H        12.9773706525        8.1365669193        7.7417736055
  C        10.9993352945        8.6835193609        7.7985231828
  H        10.5135086700        9.6479188072        7.8337662841
  H        11.1999406609        8.6139540685        6.7918628883
  H        10.3087906686        7.9957517713        8.3128418323
  H        21.0122631478       10.5438470158        3.1300352453
  C        21.6923051588        9.7254806661        3.3112352638
  H        20.9711679945        8.9060783099        3.5633372694
  C        22.6266772751        9.9911545230        4.5758016753
  C        22.3128099573        9.5541387722        1.9476021707
  C        21.8568547520       10.4896229442        5.8394116324
  H        23.1585380887        9.1461105384        4.8466632946
  H        23.3315771109       10.7473042998        4.1430652425
  H        23.2392957516        8.9141961240        1.9703724049
  H        22.5943114577       10.5195183003        1.4325635320
  H        21.6049284413        9.1232207287        1.2009096216
  C        21.0548276868        9.3321481232        6.5055335197
  H        22.5601557280       10.6704493637        6.5255351009
  H        21.3137123163       11.4194111465        5.6860570120
  C        20.2435601886        9.5985981633        7.7536946943
  H        21.7948076556        8.5418307113        6.7075145993
  H        20.4989770097        8.8019489091        5.7936603073
  C        19.0508703655       10.5926882376        7.5498222819
  H        20.7853641498        9.8794090636        8.6118865818
  H        19.7250263673        8.6585412135        8.0211006150
  C        17.8732587639        9.8879348419        6.8989874888
  H        18.7403469680       10.7968513246        8.5200853749
  H        19.4538422283       11.5747126039        7.1069214053
  C        16.5170409472       10.6454027010        6.6508267910
  H        17.5837082728        9.0226429118        7.4542201268
  H        18.2027331979        9.4850778243        5.8907582979
  C        16.8962143525       11.9381187668        5.9780717889
  C        16.0222331561       11.3522192117        7.8558248971
  C        15.4203694772        9.8795601541        5.8602219521
  C        16.6378318498       13.0564274767        6.7709929956
  C        17.4900638500       12.2963431283        4.6842399603
  C        16.0251835588       12.7236219495        7.9357476497
  C        15.6051715897       10.7071186292        9.0851982373
  H        15.8314767509        9.4190846098        4.9318189029
  H        15.0894375529        9.0254026945        6.4699735199
  C        14.2099184513       10.7080648329        5.3941191501
  S        16.9832174143       14.5283393848        5.9368035597
  C        17.5142675434       13.6589306763        4.5868326863
  H        17.5854651633       11.5762958371        3.9434555708
  C        15.7497244978       13.3039434949        9.1035116299
  H        15.4913166250        9.6172109541        9.0364312597
  C        15.2557829971       11.3231874735       10.2515744709
  H        14.4541026879       11.7717693490        5.0364078375
  H        13.6759505720       10.8947023052        6.3222509551
  C        13.1648571051        9.9745409634        4.6076095903
  C        17.9607663634       14.3889076992        3.3212061186
  C        15.2928609697       12.6951826397       10.2983720668
  H        15.8438352726       14.3623284539        9.0407652641
  C        15.0038458098       11.0164746480       11.5884694600
  H        12.1441854365       10.3036064043        4.8294768974
  H        13.0804577313        8.9436356673        4.8963888889
  C        13.3315247208       10.0688472627        3.0859829772
  C        18.0536025557       15.8252433029        3.1522071019
  C        18.4570650559       13.6307583152        2.1779375449
  C        15.0216646547       13.4636166530       11.5974784932
  C        14.8504303660       12.1355448168       12.3775649809
  S        14.7347040655        9.5260920027       12.4492872307
  H        14.4150154415       10.2426859246        2.7552008388
  H        12.7271880109       10.9278275248        2.8505581737
  C        12.6225234802        8.9212114714        2.2701368424
  N        17.7169908307       16.6837961025        4.1626121103
  C        18.3589606836       16.4822364763        1.9765716984
  C        18.7071194711       14.2769571904        0.9773157063
  H        18.5249752722       12.5311359748        2.2498158319
  C        13.6718599985       14.2624679107       11.6072928121
  C        16.1484378313       14.2938976667       12.1472981306
  C        14.6100054008       11.8147381479       13.7076399128
  C        14.4662381967       10.4429401552       13.9079469052
  H        13.3057127345        8.0325717228        2.1853744850
  H        11.7745300250        8.6048078758        2.8473517784
  C        12.2455126704        9.6404486310        0.9569511473
  S        17.8498400102       18.2113285167        3.6492473205
  N        18.2561802889       17.8909699401        2.1170923925
  C        18.6745279474       15.7124777749        0.8235718350
  H        19.1488014186       13.7099939537        0.1254747646
  H        13.8919111709       15.1929236608       11.0577226092
  H        13.5311161915       14.5096581002       12.6495324809
  C        12.4669293529       13.4022747313       11.1021547511
  H        16.4368525434       14.9206735379       11.2846318601
  H        15.7988384479       15.0560060329       12.8724464528
  C        17.3813944650       13.5347062558       12.6886434241
  H        14.5609748729       12.5126500317       14.5067054973
  C        14.1325686063        9.7219931806       15.1903918935
  H        11.6330647548       10.5929392620        1.0461069705
  H        11.6590282977        9.0206207123        0.3279472243
  C        13.3951916833       10.1132449891       -0.0391273335
  C        18.7834145463       16.4250125357       -0.4206360758
  H        12.5095292695       12.8874224417       10.1285303180
  H        12.4137472653       12.6476555778       11.9180175703
  C        11.1547699630       14.1326953627       11.2626456720
  H        17.7959546844       12.8774075371       11.9246143799
  H        17.0495125118       12.9051850589       13.5034977921
  C        18.4105545798       14.5535356062       13.1648960292
  C        14.1529858172        8.3309868552       15.3833375696
  C        13.8013614484       10.6244006439       16.3310691148
  H        13.9245188606       10.9323909266        0.4464540911
  H        14.1914911970        9.3615196247       -0.1369410238
  C        12.7567107582       10.3770403661       -1.4584937661
  H        18.5222273504       17.4792554699       -0.3841968793
  C        19.1080969019       15.9713442402       -1.7411775154
  H        11.2565292634       15.1463415903       10.8752274485
  H        10.9415922598       14.1210389026       12.3348726698
  C        10.1302616795       13.2441010424       10.7161891172
  H        18.8398784023       14.9160269826       12.2280885389
  H        17.9170757795       15.3342643506       13.7680978766
  C        19.5278105428       13.9090012267       14.0038059808
  N        14.4473399401        7.3470020458       14.3885237082
  C        13.7130241047        7.8166386482       16.5969088007
  C        13.3938624273       10.0102525471       17.5491617882
  H        13.9742725220       11.6972995620       16.2662555475
  H        13.3755730634       11.1693757515       -1.8386346273
  H        11.7740813757       10.7483409096       -1.4042344181
  H        12.8121101085        9.4690850867       -2.0717264917
  S        19.4816209238       14.3286719047       -2.2752858656
  C        19.1804692422       16.9357867702       -2.8532675314
  H        10.5423218116       13.2380664896        9.6805027325
  H        10.1680946516       12.3098183649       11.1513738361
  C         8.6419068404       13.6829860951       10.7431607590
  H        20.1786486992       13.3487809667       13.3850833616
  H        18.9410433837       13.4011167049       14.7643941738
  C        20.3691727022       14.9605724371       14.6316146597
  S        14.3417911569        5.8959651955       15.1679180074
  N        13.7044354052        6.4104695099       16.5926341026
  C        13.3975821930        8.5585995331       17.7146549505
  H        13.2675058611       10.6026398795       18.4033405164
  C        19.4388076399       14.9800617686       -3.9326519597
  N        19.3847837978       16.3168774945       -4.0027875071
  O        19.1915904707       18.1190121262       -2.7314287707
  H         8.1611702924       13.4118710365       11.6664564619
  H         8.4517714929       14.7753534257       10.8171897689
  C         7.9048155001       13.0870756366        9.5861544818
  H        19.8611187994       15.5028365164       15.4415111285
  H        21.1342221158       14.5040627345       15.2098274206
  C        21.0959971838       15.8970538661       13.6671289056
  C        13.0765407874        7.8017531296       18.9324239073
  S        20.0248149556       14.0786814354       -5.2938456685
  C        19.6686305187       17.0038989186       -5.2649301384
  H         8.5189005966       12.7900211931        8.7338520647
  H         7.5713204742       12.1122216253        9.9748989811
  C         6.7597959640       14.0355406042        9.1862500259
  H        20.2791020987       16.2646574189       13.0705670552
  H        21.7353630744       15.1214469841       13.1278756777
  C        21.9719192303       17.0250413251       14.2268851650
  H        13.4946585756        6.7981012047       19.0558309604
  C        12.5324434743        8.2697894774       20.2041469299
  H        20.1926239241       16.4412041565       -6.0370713466
  H        20.1318274897       17.9408921368       -5.1237394522
  C        18.2730724915       17.2431739687       -5.8298478713
  H         6.5905203814       13.8213117035        8.1025436032
  H         7.0075069071       15.0317330312        9.2025733118
  C         5.5417640753       13.7399361052       10.0484025281
  H        22.9493664388       16.6029634235       14.1734129099
  H        21.8704152337       17.8868319021       13.5151778126
  C        21.6257284733       17.6536098850       15.5173621460
  S        11.7913168556        9.7692288963       20.4657391092
  C        12.3748330975        7.2768531441       21.3194839038
  H        17.4485385485       16.7816841654       -5.3169439743
  H        18.1597697571       16.7697435269       -6.8506608266
  H        18.0630443896       18.2830569557       -5.9183194988
  H         5.2384693232       12.6999637063       10.0250596943
  H         5.7700247201       13.8993228549       11.0439899628
  H         4.7047673899       14.4933333493        9.8004935630
  H        20.5379875600       18.0578815102       15.5608555196
  H        21.7624626597       17.0178310977       16.4449559499
  H        22.1584389134       18.5747785342       15.5529625029
  C        11.5915024562        9.1800552072       22.1390798491
  N        11.7014941209        7.8703080960       22.3579316466
  O        12.6478844191        6.0617726061       21.2008256966
  S        10.7571829321       10.0659022162       23.4126886069
  C        11.4847980331        7.1489850712       23.6498733256
  H        11.2108582449        6.0905511724       23.4552256865
  H        10.5877072741        7.6152252376       24.1597359806
  C        12.7616994833        7.2753883682       24.4616464971
  H        13.3845900889        7.7385322543       23.7228958943
  H        13.2761810740        6.3326649347       24.6453842880
  H        12.6759040897        7.6508692508       25.4359079801
