352
 i =     2400, time =     2400.000, E =        43.4120706037
  H        12.2008984139        6.7555824941       32.6462497468
  C        11.6715897442        5.8617328397       32.4421341524
  H        12.3988563561        5.0045798535       32.3435630780
  C        11.0124516376        6.2065091707       31.1080735807
  C        10.7446623581        5.5599201202       33.5762012411
  C        11.5349571069        5.4879241348       29.8356790841
  H         9.8718541802        6.3729765975       31.2537151511
  H        11.4460559883        7.2292868783       31.0481371718
  H        10.8945380045        4.4928671134       33.8562979154
  H        10.9960077380        6.1298050809       34.5014993373
  H         9.6596785931        5.5327246630       33.2282805191
  C        10.3508759307        5.4078171640       28.8571891738
  H        11.8698628238        4.4413998656       29.9610058719
  H        12.3400168286        6.1949623388       29.4785905094
  C        10.8783032823        5.4331942876       27.3931383517
  H         9.7443787627        4.5575126466       28.8811395667
  H         9.7638721613        6.3547629740       28.9302906991
  C         9.8057020632        4.8265707120       26.4658216448
  H        11.6878166233        4.7210061956       27.1437848864
  H        11.2168323472        6.4677781751       27.1126798745
  C         8.6017834337        5.7630156722       26.3044476534
  H        10.4236959964        4.6154443255       25.5368761351
  H         9.5709191818        3.8143775679       26.7411454679
  C         7.5037901169        5.1475220074       25.4497387967
  H         8.1931202157        5.9488475131       27.2372751353
  H         8.9038022591        6.6978726153       25.9525274060
  C         7.0158709179        3.8233740519       26.1231399682
  C         7.8198831843        4.3836508896       24.2031807896
  C         6.3991592953        6.1410055539       25.2111746740
  C         7.1008815871        2.7923466821       25.2526452027
  C         6.5414556674        3.3700693545       27.3439893071
  C         7.5980848945        3.0947055247       24.0434384990
  C         8.2842233908        5.0769937047       23.0441929353
  H         6.9037006463        7.0379062491       24.8784321250
  H         5.9367699867        6.4309788493       26.1431955536
  C         5.1758131197        5.5888249007       24.3718534251
  S         6.4783542188        1.2463547544       25.9188668998
  C         6.3607680599        2.0184147624       27.4872827475
  H         6.3310592416        4.1250364686       28.1151143647
  C         7.8243941198        2.3357414666       22.8659518029
  H         8.4643683499        6.1099915482       23.0969338049
  C         8.5074866667        4.3753009187       21.9069386951
  H         5.7075282122        5.6124475935       23.4265315581
  H         4.8807212088        4.6079106588       24.6438680976
  C         3.8892268355        6.4041284504       24.2879396385
  C         6.1090087155        1.3307211756       28.7686020591
  C         8.3351121178        3.0265039418       21.7472121044
  H         7.6138246405        1.2439365885       22.8445970350
  C         8.9448954367        4.7938192466       20.6306889496
  H         3.2287851996        5.9082211702       23.4949935041
  H         3.8182559383        7.4496309273       23.7925003763
  C         3.0452020404        6.4482481415       25.5415510430
  C         6.0447883213       -0.0515881296       28.9412973165
  C         5.5367407179        2.1531777119       29.8881402999
  C         8.7881832399        2.3930329108       20.3721987728
  C         9.1433570485        3.7114638921       19.8235776851
  S         9.3486018895        6.3057031214       19.8473755450
  H         1.9917347637        6.5142058813       25.4202148846
  H         3.4704781176        7.2419029429       26.1326304408
  C         3.0539353151        5.1446811263       26.4363781573
  N         6.3967499320       -1.0214807695       27.9876005046
  C         5.8538031836       -0.6131512108       30.2015094877
  C         5.3567312982        1.5744007721       31.1437481401
  H         5.5422130926        3.2624777472       29.8085429960
  C         7.7466367429        1.5666990014       19.5500254531
  C        10.0864961694        1.5525798553       20.4643616262
  C         9.5132220034        4.0800258213       18.4754735348
  C         9.7561007095        5.4195495008       18.3765844471
  H         2.5710384708        4.3324454791       25.8560640800
  H         4.0133018818        4.6622568831       26.6948242470
  C         2.2715678630        5.2988710346       27.6330227460
  S         6.2849931027       -2.4825791653       28.6986151491
  N         5.9455465750       -2.0036833662       30.1996722028
  C         5.4973934113        0.0781207272       31.3824148397
  H         4.9039614608        2.2789905232       31.9068335938
  H         7.2676905558        0.9786725231       20.2352170987
  H         8.1006822443        0.7994609667       18.9097047068
  C         6.6791864863        2.4235416255       18.8334603981
  H        10.1982451221        1.0205548532       19.5358495620
  H         9.9134915541        0.8555734404       21.2492599235
  C        11.2675362016        2.4052962924       21.0177100647
  H         9.5712979292        3.2501348045       17.8128365713
  C         9.9482660712        6.1486834246       17.0533021902
  H         1.5923340509        4.4660298359       27.7876876058
  H         1.4941860070        6.1006324333       27.5818910277
  C         3.2218140383        5.4649128324       28.8767839043
  C         5.2477842512       -0.5833982870       32.6052447395
  H         7.1567640421        3.0248194056       18.0278830388
  H         6.2203068309        3.1271535607       19.5873464492
  C         5.4536485864        1.6383301343       18.1944247438
  H        10.9745523416        3.1787069076       21.7009108226
  H        11.7328897857        2.8246293962       20.0965896742
  C        12.2606385372        1.4393309849       21.6759772557
  C        10.1292782653        7.5178227445       16.9010319931
  C        10.0642238097        5.3496112543       15.7845311022
  H         3.7585499712        4.6023501861       29.0808575664
  H         3.8836929143        6.3562090078       28.6435333598
  C         2.2980119840        5.7606563008       30.0342595540
  H         5.3752516620       -1.5632042367       32.4771169531
  C         4.8333399642       -0.2179816297       33.8367149283
  H         5.2727859040        0.7600025453       18.9035497317
  H         5.7710111517        1.4829690285       17.1570428174
  C         4.2142034715        2.3486614198       17.9160850210
  H        11.9378583358        1.0141528045       22.6100981622
  H        12.6227075455        0.6333509624       21.0993179107
  C        13.5682150323        2.2572277886       21.9179637020
  N         9.9753346683        8.5024826536       17.8780120618
  C        10.2612908269        8.1307862489       15.6728385937
  C        10.2895202634        6.0156840486       14.5531773923
  H         9.7879767268        4.2801954361       15.6024706176
  H         2.9160408837        6.0993590469       30.8060787396
  H         1.5796464828        6.6027679280       29.8589629160
  H         1.9613902865        4.7091731938       30.5335051782
  S         4.5059246722        1.3211517312       34.3180133440
  C         4.6775287971       -1.3376696603       34.7683959082
  H         4.1194899847        3.3196587461       18.4227767961
  H         4.1022488365        2.6462685885       16.9110715778
  C         3.0600487645        1.3474219509       18.2081170154
  H        13.3239278471        3.2003538661       22.4353888881
  H        14.1677144538        2.5963953306       21.0435857304
  C        14.3841863812        1.3110929178       22.8186052834
  S         9.9433474136       10.0053490442       17.2301355635
  N        10.1051609207        9.5337954799       15.6597883990
  C        10.4554489149        7.4462064281       14.5064060446
  H        10.3575936595        5.4578668920       13.5906331275
  C         4.0561057630        0.5256249715       35.8511235119
  N         4.1277136434       -0.8437849093       35.8960057998
  O         4.9295665127       -2.5112094165       34.4810942870
  H         2.1399145886        2.0451294553       18.3473088517
  H         3.0553340811        0.9834439585       19.2294823523
  C         3.1601999704        0.1278098397       17.2845539477
  H        13.7737644673        0.8719884740       23.6276084230
  H        14.7635146668        0.5839522566       22.0923633431
  C        15.5991065803        2.0084052425       23.4704240652
  C        10.8139111409        8.2093353946       13.3122508204
  S         3.4581678421        1.3777644803       37.2584887174
  C         3.9840195643       -1.7273990396       37.1019967473
  H         3.0894038506        0.5301624837       16.2261312476
  H         4.1275404841       -0.4025326024       17.4798620932
  C         2.0244286205       -0.8781247670       17.6691988526
  H        15.5944038180        1.4155787961       24.4249687123
  H        15.4336894260        3.1044149458       23.6762121104
  C        16.8387696859        1.8849936526       22.7336092954
  H        10.8367555622        9.3167795346       13.4319968852
  C        11.3104294304        7.9338557386       12.0610024349
  H         3.1080613776       -1.4622604154       37.7421094800
  H         3.7759558635       -2.7417962824       36.6424643906
  C         5.3366322218       -1.7909889780       37.9309298102
  H         1.1279214782       -0.3775301000       17.6088349067
  H         2.2455577167       -1.1813311136       18.6476045901
  C         1.7682413657       -2.0595442994       16.7317930049
  H        17.3856978760        1.9562268582       23.5431219633
  H        16.9300304004        0.8659124898       22.3636500052
  C        17.0717480577        2.9538428502       21.7175227777
  S        12.0046919748        6.4487033248       11.5791585007
  C        11.5400026978        9.0553377650       11.2397244393
  H         6.1106707760       -1.8449045750       37.2064658423
  H         5.5542625924       -1.0433535040       38.6731111431
  H         5.2126895729       -2.7996471062       38.3820707288
  H         1.4004508213       -1.6066326642       15.7230904870
  H         0.9838494735       -2.5177176920       17.2969129314
  H         2.6127855099       -2.7240204874       16.7150446389
  H        16.6122192375        2.7321629028       20.8681364202
  H        18.1298219519        2.9390859681       21.3825396817
  H        16.8903066243        4.0656618217       21.9574411549
  C        12.3807114085        7.3191627284       10.1644469935
  N        12.1446196661        8.6515487771       10.1016695744
  O        11.0663857451       10.1917663370       11.2989986248
  S        13.2191493102        6.5950855546        8.7517225010
  C        12.2206784487        9.4227118240        8.8960367218
  H        12.2962736309       10.4598081628        9.2298550222
  H        13.0855943922        8.9389247960        8.3752901896
  C        10.9879253809        9.1975717657        8.0474941267
  H        10.8874903694        8.1731116141        7.5914008204
  H        10.1162055624        9.7159369337        8.4336110231
  H        11.0304293007        9.7670341304        7.1096727062
  H        21.7521690537       11.3613641098        3.2507988595
  C        22.0382060394       10.3379309526        3.3594361159
  H        21.2448531454        9.6367354419        3.4506263837
  C        22.8334497412       10.2621305704        4.6866082661
  C        22.9172195838        9.8158838119        2.2514612837
  C        21.9836510086       10.4909108553        5.9928778141
  H        23.4035888936        9.3740444462        4.9136702737
  H        23.7296883489       10.8408223846        4.8629253650
  H        23.5316469688       10.5959124149        2.0342937937
  H        22.2318645933        9.4841666873        1.4508560232
  H        23.5016089327        8.9805405224        2.7311084786
  C        20.7541187546        9.5451735512        6.1989358396
  H        22.5839215807       10.5016993887        6.8658918402
  H        21.5450536346       11.4463035679        6.0228549741
  C        20.1821600889        9.5241969323        7.6102632899
  H        21.2845421126        8.6864934692        5.9343869363
  H        19.9235395065        9.4008648224        5.4462691652
  C        19.0738380634       10.4737415015        7.7215766806
  H        20.8904651809       10.0867013312        8.1862026387
  H        20.1616538648        8.5138611768        8.1372835700
  C        17.6608558806        9.8527385055        7.2118251435
  H        19.1210692019       10.8358179263        8.7329882381
  H        19.3490208663       11.2036118730        6.9038877761
  C        16.4952742667       10.8292806381        7.2043455517
  H        17.5412303086        9.0786847610        7.9308946986
  H        17.8812127697        9.5636279310        6.2032551068
  C        16.8987174579       12.1454004147        6.5959543512
  C        16.0290577206       11.5296967966        8.4597622145
  C        15.3446727921       10.1906655673        6.4192473700
  C        16.6509974046       13.2184938161        7.3407230019
  C        17.4125147481       12.5245065615        5.2439077071
  C        16.0168912978       12.8485311985        8.5300109430
  C        15.5688974752       10.8500604628        9.5173215990
  H        15.8472174330        9.6448750201        5.6770822144
  H        15.1030900378        9.3828241447        7.1474061319
  C        14.2402601411       11.0780238960        5.9968928750
  S        17.2938560455       14.6813187794        6.6773943520
  C        17.5347340539       13.8758975963        5.1478333674
  H        17.7482089261       11.7619919360        4.6066931111
  C        15.4995337235       13.4584676312        9.6342960566
  H        15.6907241237        9.8282970718        9.2842629665
  C        15.1335600134       11.4227082862       10.6592661611
  H        14.5524847160       12.0372433222        5.5892962708
  H        13.6300432045       11.3922951173        6.9571805968
  C        13.3888567994       10.3674270193        4.9106781764
  C        18.0626603924       14.5182087437        3.8599828504
  C        15.1037538322       12.7589148885       10.7909745379
  H        15.4636161104       14.5048141453        9.8272878141
  C        14.7547140099       10.9559982773       11.8769614512
  H        12.4481900849       10.8828469873        4.9748184634
  H        13.1580419224        9.3195980225        5.1721250246
  C        13.9584107586       10.5814565718        3.3980311946
  C        17.9370984077       15.8816039765        3.5648355255
  C        18.5092422032       13.6251101489        2.7398694307
  C        14.7141615417       13.3531678935       11.9911158349
  C        14.3442741002       11.9925221922       12.7010621914
  S        14.5400930696        9.4304305235       12.5661960901
  H        14.7454534327        9.9195634521        3.3159259484
  H        14.3179539206       11.4942752856        3.2556567376
  C        12.8633956654       10.3570826172        2.3785415077
  N        17.4598601302       16.7413945102        4.6049697045
  C        18.1639415590       16.4649233727        2.3575254104
  C        18.8738730096       14.2265800553        1.4791106284
  H        18.5438624123       12.5706917481        2.8667621581
  C        13.4314387398       14.1831112163       11.8567261487
  C        15.8911098275       14.0552209063       12.7379864948
  C        13.9214055026       11.5175372677       13.9554608911
  C        13.9493952005       10.1937067016       14.0343169786
  H        12.5011490752        9.4552933263        2.6530016286
  H        12.1568233545       11.1293801702        2.5060896386
  C        13.4845402467       10.2121553718        0.9801017855
  S        17.5149317828       18.1972773468        3.9317637312
  N        17.9463572745       17.8361458988        2.4469006627
  C        18.6254830822       15.7097191922        1.2481214614
  H        19.2444844163       13.4840614795        0.7492712723
  H        13.6494175610       15.0053927643       11.2731659429
  H        13.2944789387       14.5720418461       12.8643182722
  C        12.1856200017       13.4483683264       11.3888628936
  H        16.2803356850       14.9353491478       12.1994877281
  H        15.4597200857       14.2973935162       13.6309872079
  C        17.0722831280       13.2335103789       13.0835381919
  H        13.6791411909       12.2629670314       14.6743729282
  C        13.8039038334        9.3680754711       15.2790272264
  H        14.3632509373        9.5959029006        0.9563089293
  H        13.8940303200       11.2092704172        0.6309318260
  C        12.4354904155        9.8880156274       -0.1057068325
  C        18.9396710043       16.3505395095       -0.0053448899
  H        12.2541347465       13.0812710278       10.3856794055
  H        11.8504301712       12.5870152166       12.0195443326
  C        11.0170257802       14.4826381162       11.2660720220
  H        17.4854933317       12.6422338529       12.3075117152
  H        16.8761936045       12.5562918724       13.9207765593
  C        18.1652103092       14.2675516897       13.3130764545
  C        13.7171740990        7.9687805065       15.4512840203
  C        13.5271069564       10.1370351134       16.5308442082
  H        12.0190666996        8.9120897891       -0.0539453748
  H        11.4642646350       10.4538660366        0.2262869079
  C        12.8765426040       10.2266760369       -1.4727785478
  H        18.5501210169       17.3307589607       -0.0507835833
  C        19.2374293471       15.9082298386       -1.2500258328
  H        11.2688103499       15.2608091193       10.6049835861
  H        10.6901831499       14.7828347468       12.2937984069
  C         9.7690307618       13.7319584244       10.7585326794
  H        18.1796727276       14.6980823279       12.3472262160
  H        17.8222542594       15.0208905794       14.0064995949
  C        19.5103461467       13.6549208335       13.5973686515
  N        14.0436751495        7.1456785780       14.3710809483
  C        13.4414108421        7.3260683849       16.6403867829
  C        13.3183331324        9.5219049218       17.7314914377
  H        13.7511474136       11.1875728089       16.5453746561
  H        12.5657967596        9.3467233235       -2.1676069871
  H        13.9512563483       10.2958654734       -1.4266496369
  H        12.2874222170       11.1024848085       -1.8052214034
  S        19.5890727583       14.3613863951       -1.7176155960
  C        19.4268058541       16.9750568856       -2.3376942890
  H        10.0189377316       12.7142465608       10.5640590290
  H         8.9925536536       13.8788237200       11.4147912179
  C         9.2094626718       14.0898529520        9.4381573238
  H        19.5855644818       12.7004966503       13.0565820358
  H        19.6628516094       13.4740876679       14.7363268617
  C        20.6284448458       14.6810989947       13.4086984881
  S        13.8257095811        5.5261065140       14.8342287809
  N        13.4951627823        5.8964987482       16.4383741002
  C        13.3339958768        8.0119527605       17.8557876797
  H        13.1629686178       10.0384865763       18.6636774684
  C        19.9350274687       15.0422234208       -3.3401876636
  N        19.9631921575       16.3587034068       -3.4692262526
  O        19.1104083911       18.1596655516       -2.2162463048
  H         9.1627104720       15.1018850895        9.2552342438
  H         9.9633809121       13.8471415257        8.5562986851
  C         7.9752296039       13.3604548397        9.0143654648
  H        21.5477930137       14.1478366311       13.6513135374
  H        20.5050891085       15.1058952201       12.4372591785
  C        20.6603190762       15.8180695065       14.5334413874
  C        13.0109340980        7.1445500786       18.9100213363
  S        20.3989873637       14.1257684363       -4.7379506289
  C        20.1226122802       17.0860853184       -4.6692793330
  H         8.3041476665       13.1107183926        7.9670244615
  H         7.7805899416       12.5018106452        9.6395335901
  C         6.6211341065       14.0784355853        8.9468909982
  H        21.3897575544       15.6612051593       15.2738420744
  H        19.8460983618       15.9213771461       15.1722374118
  C        21.3477452925       17.2108472392       14.0955980706
  H        13.5212333320        6.2088434695       18.8253195121
  C        12.5725997472        7.4945939265       20.1525010575
  H        20.8696869253       16.6592468908       -5.4255958672
  H        20.5279235145       18.0693664626       -4.3009226728
  C        18.6949639450       17.3460470977       -5.2714412132
  H         5.9116844469       13.6473482026        8.2730325055
  H         6.9716246478       14.9996821030        8.4691183311
  C         5.9970278576       14.2653167409       10.2928258972
  H        22.3207813564       17.0457460308       13.5919633056
  H        20.6428801433       17.7963559779       13.4159725624
  C        21.7361523734       18.1756585249       15.2171333252
  S        12.0786394630        8.9637047979       20.6693454814
  C        12.4885593476        6.4572394807       21.1848696855
  H        18.7934419128       17.6437755195       -6.2935315133
  H        18.0905679095       17.9336959615       -4.6582450955
  H        18.3284389779       16.4067679063       -5.4658789897
  H         5.2427679287       15.0418628126       10.4364856992
  H         5.4933529354       13.3161884855       10.5969640654
  H         6.6267667210       14.5107163397       11.0016086842
  H        22.2176669051       19.0206296214       14.6705496139
  H        20.9126737357       18.2770511107       15.9840670348
  H        22.4035561127       17.7831297393       15.9679271573
  C        11.9077181030        8.3362913573       22.2668229567
  N        11.9873653817        6.9839505542       22.3615472461
  O        12.7482327086        5.2409691318       20.9160319674
  S        11.2099238016        9.1561795770       23.6921614638
  C        11.9843503929        6.1851901191       23.5346960876
  H        11.4929719555        5.2080086128       23.2874541695
  H        11.2759354331        6.5224240380       24.3077962151
  C        13.3304038792        6.1597414318       24.2976237292
  H        13.8502835993        5.1897579846       24.4462693832
  H        13.2234318178        6.4235510714       25.3396434968
  H        13.9396474208        6.8227227067       23.7172361638
