352
 i =    30700, time =    30700.000, E =        25.1054862167
  H        11.8068258710        7.2751390234       32.6812373659
  C        11.7621276845        6.1797154924       32.7608384969
  H        12.7258333294        5.7433592372       32.4519461519
  C        10.8328961784        5.8255923730       31.6417717253
  C        11.1687826405        5.8927316085       34.1234725898
  C        11.3463148907        5.9326838415       30.2172314860
  H        10.4801775073        4.8242151947       31.7711167013
  H         9.9626139809        6.5158093409       31.6616524958
  H        10.3342638457        6.5003599517       34.4457370911
  H        10.8300178718        4.8502989847       34.0925278864
  H        11.8694215547        5.8475788021       34.9782401550
  C        10.2965379427        5.6497505732       29.1457569290
  H        12.1575975819        5.2181771226       30.0596458785
  H        11.7071304643        6.9193317091       30.0091525505
  C        10.7544206698        5.5011238616       27.6968116959
  H         9.7011197704        4.8521050358       29.5118428482
  H         9.6615152380        6.4661542140       29.2894566399
  C         9.6888683643        5.0137252779       26.7345696646
  H        11.4945593282        4.7399864549       27.6874421982
  H        11.2480065739        6.3667590327       27.3342075112
  C         8.5278958695        5.9393190878       26.4475217049
  H        10.1850798739        4.6581963255       25.8321056054
  H         9.4250283861        4.0155380232       27.1344586276
  C         7.3601623925        5.4111049910       25.6278560529
  H         8.1215241715        6.1614233097       27.4546261348
  H         8.7936451269        6.8436594504       25.9683976812
  C         6.9595785528        4.1247354887       26.3138181526
  C         7.7980810078        4.6193867132       24.4228742409
  C         6.0428261920        6.2966294636       25.3935334147
  C         7.0509145008        2.9808119083       25.5580861801
  C         6.3976610597        3.7840264321       27.5367612855
  C         7.5234622428        3.2833813520       24.3337234010
  C         8.2166788387        5.2022937191       23.1905970134
  H         6.2456332977        7.1029221246       24.8097268405
  H         5.6843146874        6.6461390021       26.3515245291
  C         4.9149812310        5.4689095497       24.7225426746
  S         6.6882777817        1.5192288121       26.3687978054
  C         6.2643415404        2.3861824898       27.7995626096
  H         6.1187188918        4.5786667764       28.2673676428
  C         7.8593541726        2.6014839523       23.1444184778
  H         8.2199662841        6.2941685714       23.1362556993
  C         8.5197653008        4.5382415017       22.0781997756
  H         5.2378508318        4.9372750091       23.8103692966
  H         4.6987131157        4.7771208453       25.4533255459
  C         3.6074265157        6.2107196774       24.5102312927
  C         5.7076125812        1.7261422147       29.0749679798
  C         8.2986226127        3.2131951382       21.9642879495
  H         7.7186167373        1.5646921275       23.1202809034
  C         8.8156692787        4.8242768980       20.7830996276
  H         2.9160184485        5.5984503510       23.9941278322
  H         3.8336348112        7.0516694966       23.8255917695
  C         2.8219248906        6.6176057825       25.7816511207
  C         5.7420391103        0.3077431824       29.2802706565
  C         5.2158555669        2.5784443381       30.2012171841
  C         8.6361409040        2.4059249432       20.7594758313
  C         8.9247857183        3.7109002339       19.9840559324
  S         9.1259231336        6.2749545780       19.9648315925
  H         2.0568528188        7.3470385232       25.5990188430
  H         3.4632945426        7.2204536219       26.4211991056
  C         2.2318659539        5.3828455846       26.5190846759
  N         6.2270899114       -0.6614232320       28.3457325659
  C         5.4954329606       -0.2020731557       30.5405704022
  C         4.9413740538        2.0286897560       31.4445082329
  H         5.1834559890        3.6188681494       30.0943073003
  C         7.4375459625        1.6431073678       20.1479212831
  C         9.8478918058        1.4782330201       21.0090788644
  C         9.4004178674        4.0162670919       18.7232156437
  C         9.5370978154        5.4045127220       18.5225340661
  H         1.5036423555        4.8389832060       25.8707564306
  H         3.0022607470        4.6981242112       26.7562718774
  C         1.5132981073        5.7031771461       27.8040542070
  S         6.1898425571       -2.1020217734       29.1569222598
  N         5.6456166121       -1.5958343775       30.6209461278
  C         5.0966201110        0.5730668101       31.6482018953
  H         4.5624157299        2.6579121705       32.2655126880
  H         7.2780684776        0.7025418162       20.6956440646
  H         7.6562388939        1.3086143408       19.1742274453
  C         6.2004840949        2.4874582943       19.9876390594
  H         9.7196790094        0.6526659773       20.3366696992
  H         9.8884118444        1.0241250685       22.0231890767
  C        11.2210724091        2.1479936309       20.9208576278
  H         9.5691073282        3.2517850066       18.0523569493
  C         9.9356489324        6.0722033488       17.2356719650
  H         0.6560361957        4.9622626758       27.7364802846
  H         1.1065982543        6.7524245507       27.6505221238
  C         2.4462038426        5.5467973962       28.9660324575
  C         4.8984909602       -0.0643708673       32.9002960805
  H         6.4464491861        3.2510928032       19.2513742210
  H         5.9900509164        2.9434361141       20.9336065802
  C         5.0429411889        1.6545949607       19.4521094486
  H        11.2894464459        2.9908142828       21.5822210267
  H        11.3394648405        2.6395819876       19.9542149372
  C        12.3603950607        1.3429398029       21.3860104809
  C         9.8867480528        7.4846742315       17.0124615234
  C        10.1728790070        5.2462634306       15.9683733326
  H         2.7234608775        4.5334656395       29.0589846008
  H         3.3809926226        6.0560973460       28.7978904347
  C         1.8369160165        5.8574409224       30.3441309544
  H         5.1220587211       -1.0919427528       32.8587658453
  C         4.6300854195        0.4179866533       34.1959506254
  H         4.6417341397        1.1872829535       20.3321158479
  H         5.3654443668        0.8714287755       18.7665707743
  C         3.9202013833        2.4965527819       18.9989968851
  H        12.2429322456        1.0996948218       22.4564007225
  H        12.3508844054        0.3549850515       20.8125858503
  C        13.6008260194        2.1877978186       21.1689434692
  N         9.5269091074        8.4632918038       17.9304136351
  C        10.2461918098        8.0728114691       15.7975079466
  C        10.4506912716        5.8552416883       14.7451467092
  H        10.1341935096        4.1979699250       15.9902723188
  H         1.3402198244        6.8679244272       30.4368863777
  H         1.1814024089        5.0906554217       30.7207577329
  H         2.6378795571        5.7919588705       31.0904743430
  S         4.2855548234        2.0547473987       34.7459205796
  C         4.6474725947       -0.6104007656       35.2951641290
  H         3.6306588836        3.0047242617       19.8845335443
  H         4.1051748059        3.1814264557       18.2267615741
  C         2.6838868352        1.5698406320       18.7394039888
  H        13.3795862913        2.9877813176       20.4273797294
  H        14.4696598770        1.7241947145       20.8022259327
  C        14.1047777629        2.9343695431       22.4113451202
  S         9.7743596437        9.9214041112       17.2482232317
  N        10.2594718971        9.5211839477       15.7864965325
  C        10.5246818544        7.2858531356       14.6076558255
  H        10.6881206845        5.2829534613       13.9019624828
  C         4.2381065365        1.3342116026       36.3706403551
  N         4.3584651631       -0.0298213454       36.4827904346
  O         4.6482771277       -1.8299121034       35.1229659414
  H         1.8524783762        2.2051715980       18.5070179300
  H         2.5544928427        0.9575519398       19.7444840451
  C         2.7723418616        0.7323475407       17.4937666870
  H        14.6049957225        3.8202062821       21.9755060679
  H        13.2252296627        3.3714733438       22.9724829713
  C        15.0802858213        2.0419547270       23.1699813871
  C        10.7716004578        8.0568450677       13.4098708483
  S         3.8603513180        2.2632111808       37.7955003534
  C         4.3066774456       -0.7284673268       37.7199297398
  H         2.0854941503        1.0621679451       16.6798198936
  H         3.7745885317        1.0049631146       17.1659338857
  C         2.6523201665       -0.8335009505       17.6641315157
  H        15.2848088447        1.2589612396       22.4897246253
  H        14.4346221371        1.6419488252       23.9339996563
  C        16.2707345473        2.8193845097       23.7218254129
  H        10.4951317713        9.0790160489       13.4985871336
  C        11.4130135284        7.7462184678       12.2128257755
  H         3.4522529014       -0.2709543258       38.3211356525
  H         4.0450602946       -1.7724284717       37.5455980920
  C         5.6587817632       -0.6557263477       38.4583816470
  H         3.4798903957       -1.0483865224       18.3225574563
  H         2.8679712065       -1.2969711039       16.7270980007
  C         1.2701338998       -1.2982325066       18.1433509182
  H        15.9347640552        3.8077558178       24.0109872644
  H        16.4908726120        2.2715226751       24.6082576103
  C        17.3603876488        2.9210682732       22.6558824399
  S        12.1051351272        6.1709893587       11.8465090350
  C        11.5155623442        8.7869005475       11.1225962814
  H         6.2462146969        0.0338124731       37.9589885108
  H         5.5435021687       -0.2355946618       39.4494829030
  H         6.1936029119       -1.5476308511       38.4900936968
  H         0.7430553722       -0.4785417750       18.7130814074
  H         1.3433050961       -2.1335446790       18.7909060329
  H         0.6174054227       -1.5867560434       17.3120810322
  H        17.3094859042        3.8365538193       22.0439729825
  H        17.3129686536        2.0455302320       22.0099877972
  H        18.3716021190        3.1848801048       22.9987970518
  C        12.4359077775        6.8631785608       10.2566049289
  N        12.0291428825        8.1678597895       10.0572357913
  O        11.0112272755        9.9397826894       11.0913762789
  S        13.1596800984        5.8511798837        8.9906293865
  C        12.0629343212        8.8683239691        8.7793036693
  H        12.5071006845        9.8342629000        8.8802516992
  H        12.8294039412        8.4274879389        8.0542936852
  C        10.6970250496        9.0108598558        8.1312113034
  H        10.5186449516        9.9599046476        7.5986121556
  H        10.4599553469        8.2186092168        7.4480878354
  H         9.8012635881        9.0996835124        8.7498088238
  H        20.7578028269       11.2565530607        3.4762890668
  C        21.5732532642       10.5890494288        3.3648750308
  H        21.2887498105        9.5372010845        3.3556153230
  C        22.4667132438       10.8408749226        4.5997091783
  C        22.2797345084       10.9711724243        2.0450281873
  C        21.6855109105       10.9016849441        5.9226427682
  H        23.3446750033       10.1830722271        4.7309176093
  H        22.8749510202       11.8236398661        4.4257625560
  H        22.1995591813       10.1315434613        1.3132505772
  H        23.3431379031       11.0662078656        2.0909986468
  H        21.8108826924       11.7165248162        1.5318187461
  C        21.2821521627        9.5120815098        6.5643534054
  H        22.3131321138       11.3931311808        6.6352016883
  H        20.7820772236       11.4309543474        5.7794232249
  C        20.7158220217        9.7314404390        7.9619042619
  H        22.2293235273        8.8698958119        6.5673151341
  H        20.4917633455        9.0689846959        5.9353738448
  C        19.4260694749       10.4735004496        8.0103859175
  H        21.4822161004       10.1835621565        8.5432515014
  H        20.6361908594        8.7630689665        8.4147539915
  C        18.2040805080        9.7068528620        7.4021245415
  H        19.2694173216       10.4585582369        9.0937423360
  H        19.5376948524       11.4658781201        7.6002760901
  C        16.8483547718       10.4581940670        7.2129973730
  H        18.0939198691        8.7557636349        7.9836270193
  H        18.4615297687        9.4571264634        6.4254693460
  C        17.2737883944       11.7765394861        6.4547571862
  C        16.4267840242       11.2058815305        8.4429022232
  C        15.6896133881        9.7155786297        6.4845612435
  C        17.0232602139       12.8928339653        7.1984368778
  C        17.8288936667       12.1279992793        5.1729753947
  C        16.5181463869       12.5471258331        8.4577856146
  C        15.9682128183       10.5199306814        9.5497152673
  H        16.0469449709        9.3331214113        5.4799713332
  H        15.4054854252        8.8068439894        7.0268912401
  C        14.4290533063       10.5570178647        6.2063881306
  S        17.4266967218       14.4127332136        6.3579826301
  C        17.8411083875       13.4592762820        4.8796423800
  H        18.0644568044       11.2964481342        4.5305639096
  C        16.1114771276       13.1779847145        9.6085990661
  H        15.8960601746        9.4670349100        9.5124357979
  C        15.5399083652       11.1488827024       10.7229662787
  H        14.7293018240       11.5189560996        5.7949104279
  H        14.0145713803       10.8064415010        7.1595463560
  C        13.3898329093        9.9389383171        5.3195999448
  C        18.1995040534       14.0648725152        3.5326834654
  C        15.6343785549       12.4959931664       10.7232938706
  H        16.1776096759       14.1937713729        9.4806779193
  C        15.0057746711       10.8703086817       11.9386750573
  H        12.5303263266       10.5907818585        5.3283990899
  H        13.2412426786        8.9565456247        5.8203913289
  C        13.9959547671        9.8112484986        3.8563315573
  C        18.0909934871       15.4369237354        3.2746304267
  C        18.5924214241       13.1436310515        2.4805611700
  C        15.2222485015       13.3066038344       11.9176150460
  C        14.9010849622       11.9928474449       12.6921091726
  S        14.5728117102        9.3508270732       12.6798999845
  H        14.7185426076        9.0206524392        3.7631336152
  H        14.4874774206       10.7694909438        3.6679128829
  C        12.9990316225        9.5590438613        2.6929721333
  N        17.6598208968       16.3927394186        4.1853125121
  C        18.3513614247       15.9761291834        2.0242979209
  C        18.8904491830       13.7120161702        1.2695428688
  H        18.8214047979       12.1183909921        2.6463266940
  C        13.9068404699       14.1511263368       11.7540600616
  C        16.4307143211       14.1829781655       12.4787429162
  C        14.4932262174       11.6611675343       13.9784829909
  C        14.2064222013       10.3107414132       14.0764372521
  H        12.4402834424        8.7285536870        2.8764238337
  H        12.2290716977       10.3474163814        2.7684503728
  C        13.6000586332        9.6466049046        1.2411879556
  S        17.6476747826       17.8495971615        3.4560245719
  N        18.1449294476       17.3479908472        1.9574268672
  C        18.7818739078       15.1610302873        0.9402611132
  H        19.1143120141       13.0704611342        0.4127502407
  H        14.0271338868       14.9870516932       11.1213208247
  H        13.7361501361       14.5622771589       12.7435949573
  C        12.7425201175       13.3226026181       11.3954247506
  H        16.8738336572       14.7485647605       11.5767149228
  H        16.0497893387       14.9415889036       13.2003654139
  C        17.4981347913       13.2752064741       13.0704488459
  H        14.4258591274       12.2810893023       14.8610719057
  C        13.7639626969        9.6422113903       15.3377042434
  H        14.6100903883        9.1889988455        1.2325075603
  H        13.7754304655       10.6623062116        0.8698745212
  C        12.6924659409        8.7967605526        0.3763372837
  C        19.0784478478       15.8733335636       -0.2322990905
  H        12.9839897786       12.5962869892       10.5565815044
  H        12.4713587742       12.6818128554       12.2321095467
  C        11.5329713583       14.1163429565       10.9532680770
  H        17.9003408963       12.6910849947       12.2517908576
  H        17.0992083095       12.5344705237       13.7879353429
  C        18.6979119629       14.1025488478       13.5099868569
  C        13.6777186976        8.2385656226       15.5624424219
  C        13.6525973585       10.4109230677       16.5720904139
  H        12.6260814405        7.7768706589        0.7939923702
  H        11.6760552456        9.0981689705        0.4195090380
  C        13.1183009599        8.9497956916       -1.1078962641
  H        18.9497994925       16.8696960551       -0.2533799714
  C        19.2159348129       15.4384843620       -1.5455263594
  H        11.9292252274       14.6114330804       10.0456377981
  H        11.2239563282       14.8285218537       11.6476343886
  C        10.3290882268       13.2542071695       10.5709710984
  H        19.3547685478       14.2993018767       12.6764938571
  H        18.2742422875       15.0782406731       13.8781545519
  C        19.4680802860       13.5040849994       14.6578816600
  N        14.0765618479        7.1937237199       14.7238430740
  C        13.3867375878        7.7088330351       16.8276318772
  C        13.1562856711        9.8643842467       17.7236689953
  H        13.7628188379       11.5017846778       16.6304091755
  H        12.4468397791        8.3242232402       -1.7415052847
  H        14.1740399561        8.5741840882       -1.1843687289
  H        13.0311047353        9.9278402751       -1.4378205957
  S        19.3293415268       13.7692260021       -2.1325218425
  C        19.3700619245       16.4766465618       -2.5927378988
  H        10.6948907759       12.4168768271        9.9455892952
  H        10.0160596456       12.8286530237       11.4851718566
  C         9.2857586464       13.9061816117        9.6860229553
  H        19.7579105337       12.4653384056       14.4495542051
  H        18.8702422629       13.4513055255       15.5765233132
  C        20.7409575116       14.2601859531       14.8742058846
  S        13.8509447363        5.7253988567       15.4147921448
  N        13.3153676667        6.2924681178       16.8241171060
  C        13.0028506386        8.4623681234       17.9512190816
  H        12.9743998987       10.3766052482       18.6629500503
  C        19.6206535787       14.4720959474       -3.6511157889
  N        19.6234644834       15.8228202831       -3.7414393207
  O        19.3223831945       17.7053661724       -2.3739714440
  H         8.7628198479       14.5616810396       10.3780242314
  H         9.9395319200       14.4727437549        8.9110314377
  C         8.4457870622       12.8547839991        9.0428120284
  H        21.3285215805       13.6058840810       15.4835957617
  H        21.3560222650       14.3582556883       13.9123034516
  C        20.4978862959       15.6170371024       15.5247623620
  C        12.8168824454        7.7293742578       19.1227921473
  S        19.9777301459       13.5749257535       -5.1273610461
  C        19.7628002364       16.6322671232       -5.0372802253
  H         8.9775052287       12.4253908353        8.2424690131
  H         8.3118415830       11.8750844794        9.4723554507
  C         7.1107572328       13.4710357308        8.7930138635
  H        20.3819256782       15.5601142364       16.6942357024
  H        19.6275459156       16.0759747085       15.1688733097
  C        21.5694159287       16.6227212633       15.2419970015
  H        13.2858977752        6.7671340394       19.0769016266
  C        12.2342006357        8.1270792565       20.2920491139
  H        20.3536961273       16.0733195280       -5.7843694765
  H        20.2214181450       17.6241683833       -4.7467613680
  C        18.3461048498       16.9631502695       -5.6329699242
  H         6.6806892741       13.0985233812        7.8723703671
  H         7.2187695485       14.4970236969        8.5660899425
  C         6.1614231584       13.4310655762        9.9537720725
  H        21.8403966553       17.0698442008       16.2112546116
  H        22.4276037313       16.0176280940       14.8897690999
  C        21.2746299132       17.6554155535       14.1572534786
  S        11.6531244365        9.7147949246       20.6948299335
  C        12.1979364328        7.0239833627       21.3190343241
  H        18.4650957523       17.6937679762       -6.4076785555
  H        17.6301753262       17.3573997949       -4.9376605080
  H        17.8724428873       16.0721326596       -6.0269562880
  H         6.0904788054       14.4277693430       10.2425052558
  H         5.1277936366       13.1663383493        9.5045404097
  H         6.4726443978       12.7302998114       10.7539626080
  H        20.4346205584       18.2135157151       14.3959866337
  H        22.1551319182       18.3157743223       13.9281852389
  H        20.9995120166       17.0121112238       13.2400416413
  C        11.2772697563        8.8867772563       22.2063386682
  N        11.5775400521        7.5777511823       22.3796154300
  O        12.3965081414        5.8047210784       21.1428987757
  S        10.4836032903        9.7320038386       23.5445810037
  C        11.4029289318        6.9415604609       23.6435259517
  H        11.4252167205        5.8749665295       23.5817971275
  H        10.4868528281        7.1649259774       24.2517456903
  C        12.6171814618        7.3017624939       24.5684386474
  H        12.5909089921        6.7829945237       25.4548021602
  H        12.6887257778        8.3435696098       24.6522335158
  H        13.5785143131        7.0868778606       24.1099727819
