352
 i =    92200, time =    92200.000, E =        25.3308048588
  H        10.9844287922        7.6540625377       31.7736082846
  C        11.8617633617        7.1702723503       32.1210227647
  H        12.6559173841        7.8506310114       32.0781827715
  C        12.2928700093        6.1661276981       31.1225637180
  C        11.3925908000        6.5450947590       33.4286004258
  C        11.2186652945        5.3193303635       30.4558730483
  H        12.7718032479        6.7070336934       30.2737372151
  H        13.1352753821        5.5680079829       31.6097891090
  H        12.2253436197        6.5549095271       34.1533998732
  H        10.6338010334        7.1243712274       33.9093075915
  H        10.9869558127        5.5334842266       33.3738578693
  C        10.4320495196        5.8956862042       29.2566748482
  H        10.4835913589        5.0166160654       31.2522358941
  H        11.6597809161        4.3481671986       30.2042017725
  C        10.9641409637        5.4375936028       27.8616075802
  H         9.3383245718        5.5864725819       29.2220162661
  H        10.1645553755        6.9295842677       29.4958238182
  C         9.9484555582        4.6771150308       26.9815060189
  H        11.8589799154        4.8864587252       28.0207766671
  H        11.3094507870        6.3424732751       27.2771643565
  C         8.8466563959        5.6075651661       26.4618319515
  H        10.4321992859        4.1526161021       26.1510338162
  H         9.5021869867        3.9687424368       27.6228257535
  C         7.6617280414        4.9884066385       25.6927562904
  H         8.4580764832        6.1751060214       27.2935961231
  H         9.3732390464        6.3251733128       25.8554233224
  C         7.3386077269        3.6347997793       26.3291269850
  C         8.0492650738        4.2757693818       24.4155083707
  C         6.4229219897        5.9024708199       25.3140060875
  C         7.6040973383        2.5262457335       25.5489274773
  C         6.9220068246        3.1803910397       27.5650591869
  C         8.0137284425        2.9084774731       24.3316342737
  C         8.6034233575        4.9503310713       23.3215291703
  H         5.9128023785        5.4212451001       24.4681585951
  H         6.7562907925        6.8382427611       24.8452292694
  C         5.4158218431        6.4266543582       26.3268070224
  S         7.0810975724        1.0056962711       26.2316372977
  C         6.6878020366        1.8743744012       27.7503823113
  H         6.8548267912        3.9730430446       28.2635555334
  C         8.3468264077        2.2886583968       23.1040454350
  H         8.5931097479        6.0234502272       23.3134218786
  C         8.9792193476        4.3358600578       22.1611191958
  H         5.5962136093        6.1189901567       27.3127725540
  H         5.4481648751        7.5017484489       26.2798416768
  C         4.0526217898        5.9961821669       25.8791401271
  C         6.2232254147        1.2640023520       29.0581999912
  C         8.8358888120        3.0362182061       21.9931902676
  H         8.3529372193        1.2478170673       22.9161423637
  C         9.4048073843        4.6530743513       20.9377363234
  H         4.1589179774        4.9204663947       25.6432019302
  H         3.7379672930        6.5749278058       25.0838309485
  C         3.0587481767        6.1540837286       27.0841279608
  C         6.1828576499       -0.1017256307       29.3044499854
  C         5.7144717433        2.1463565674       30.1146304080
  C         9.1778619372        2.2642844887       20.7747357330
  C         9.5222027015        3.5860589354       20.0866005621
  S         9.7349586874        6.1720367450       20.1790672790
  H         2.3176366392        6.8977091308       26.7714246277
  H         3.5189970695        6.5664073352       27.9289659384
  C         2.3920557810        4.8435318549       27.4254035092
  N         6.4040366339       -1.0888445558       28.3154609554
  C         5.6677356244       -0.6646300861       30.4002368947
  C         5.3548709521        1.5919326046       31.2942867725
  H         5.5776772935        3.1940474176       29.9046229578
  C         7.9969209188        1.4905165870       20.1625405582
  C        10.3813793256        1.3485703753       20.9841266212
  C         9.8512161178        4.0448782069       18.8159970883
  C         9.9857603340        5.3806675978       18.6992544479
  H         1.8985649963        4.5859131524       26.4860087992
  H         3.1520211564        4.0743308798       27.6131356618
  C         1.2735818116        4.9906277340       28.4669035999
  S         6.1469942785       -2.5769719131       28.9718820466
  N         5.8094072217       -2.1110948183       30.5227657619
  C         5.4195109844        0.1111550518       31.5607508056
  H         5.0970938401        2.3089026762       32.0459546760
  H         7.5319416954        0.8600164931       20.9467186556
  H         8.2233588257        0.8185023915       19.3218519194
  C         6.6981632713        2.3369091285       19.6998622527
  H        10.4402313839        0.6279610018       20.2204354789
  H        10.1451461494        0.7165882284       21.8452338456
  C        11.7143695158        2.0492920456       21.1907639916
  H         9.9183418852        3.3967890218       18.0209325823
  C        10.2478152609        6.1736270542       17.4149180716
  H         0.7462911924        4.0749051214       28.6852932747
  H         0.4836395572        5.5174792180       27.9335699466
  C         1.6973006432        5.6530242079       29.8118022835
  C         5.0475639195       -0.4741918453       32.7790026865
  H         7.0044558351        2.9642132985       18.8705911571
  H         6.3751160508        2.9210579634       20.5488826716
  C         5.5083195969        1.4548213531       19.4084948240
  H        11.5689739508        2.6109589743       22.0884821904
  H        12.0093196317        2.5369079248       20.3122531098
  C        12.7916636482        1.1168493945       21.6211607645
  C        10.1240173518        7.5938701966       17.2653232168
  C        10.3872227289        5.3960210440       16.1370318313
  H         1.8920527410        6.6792857444       29.6754620494
  H         0.9154737218        5.7100606376       30.5825843883
  C         2.9760740682        5.1467300946       30.5024020520
  H         5.2908078082       -1.4526527454       32.7248539645
  C         4.7973585764       -0.0386643263       34.1008716606
  H         5.0450506602        1.2101015456       20.3476296960
  H         5.8541827281        0.6461552288       18.8496058592
  C         4.3667310525        2.1212826366       18.5858990907
  H        12.5751327519        0.5839690377       22.5442149916
  H        13.0300494746        0.3624922634       20.8353187586
  C        14.0141833328        1.9823394518       21.9037291761
  N         9.7435979994        8.5759838625       18.2243918541
  C        10.3560481678        8.2216034849       16.0077410715
  C        10.6434152506        6.0003515366       14.8905870494
  H        10.3072288006        4.3021557280       16.1566813145
  H         3.5107270946        5.9362650760       30.9709896160
  H         2.7478643359        4.3821159386       31.1979872976
  H         3.6551608739        4.7032042379       29.7093460397
  S         4.4978131972        1.5959084530       34.4631786187
  C         4.7440682527       -0.9806703012       35.2028485003
  H         4.1205488893        3.0267647408       19.0884308822
  H         4.5699715118        2.4182075213       17.5709675857
  C         3.1075418963        1.2348265549       18.3743787990
  H        13.6476527567        2.7757353500       22.5016298216
  H        14.5726266982        2.3469521269       21.0643068948
  C        14.9899216517        1.3070673973       22.6842943654
  S         9.7202852740       10.1030902145       17.5477251150
  N        10.1304068962        9.6324908740       16.0334599929
  C        10.6702856155        7.5296654134       14.8292746968
  H        10.8056805911        5.4344052014       13.9884567645
  C         4.2404889365        1.0081880952       36.0963846663
  N         4.3444862193       -0.3244640634       36.2955868735
  O         5.0581621111       -2.1698198104       35.0230894792
  H         2.6924418506        1.2326696353       17.3782628927
  H         2.3152684645        1.7653060357       18.8605040350
  C         3.1501146995       -0.2194797742       18.9890922893
  H        14.3469346332        0.8278162999       23.4611262331
  H        15.4762552698        0.6116568245       22.0179998560
  C        15.9760455425        2.2893981204       23.3502393134
  C        10.9595824752        8.3741279258       13.6921797710
  S         3.8379400120        1.9930327081       37.5322696650
  C         4.3545458677       -1.1076039365       37.5193874817
  H         4.0700910733       -0.7094901355       18.6749860745
  H         3.3128852163       -0.1457511470       20.0588041539
  C         2.1109790663       -1.1844733221       18.6670415064
  H        15.3218876471        2.8010938170       24.0642598091
  H        16.2374525025        3.0682930583       22.6097738132
  C        17.2403765561        1.6243149412       23.9285020505
  H        10.8074561417        9.4409341725       13.7332567731
  C        11.3775165011        8.0468457963       12.4069435428
  H         3.7689810226       -0.5283708452       38.1842451973
  H         3.7333572569       -2.0341312149       37.4453375336
  C         5.8262155503       -1.4688866385       38.0875708727
  H         1.1248198400       -0.7627195338       18.5170061404
  H         2.0932563021       -1.7556170295       19.5368648165
  C         2.4609622418       -2.0823908792       17.4474123757
  H        17.3882936803        2.2313760361       24.8211390577
  H        17.1363982690        0.5624430347       24.2646134989
  C        18.3882756065        1.6657636103       22.8789005077
  S        11.7374336615        6.4056589654       11.9048360627
  C        11.5851016074        9.0955252980       11.3927430583
  H         6.2444088156       -2.2804225299       37.5195249740
  H         6.5512357273       -0.6407302569       38.1578366985
  H         5.5824722175       -1.7264345518       39.1290836020
  H         3.4448550111       -2.4298033675       17.4395645511
  H         2.3357270894       -1.4437434533       16.5423807538
  H         1.7673206490       -2.9494671180       17.3315952558
  H        19.2524173721        1.1884981694       23.2396546748
  H        18.6557245221        2.6498308215       22.5468405822
  H        18.0703744396        1.0414581724       22.0474292280
  C        12.2385019030        7.1931853653       10.3987762349
  N        12.1749522736        8.5057274737       10.3350332398
  O        11.4063900103       10.3052659064       11.4820190017
  S        12.8182732280        6.4049556786        8.9280584606
  C        12.6380076686        9.3730133688        9.2470770820
  H        12.7961480936       10.4335540654        9.6105704946
  H        13.4978862208        9.0051982948        8.7160503653
  C        11.5238835946        9.5030674193        8.1758147609
  H        11.0127274121        8.5069022345        8.1104743936
  H        10.7785114647       10.2263049942        8.5080277687
  H        12.0074833379        9.8735284552        7.2299492398
  H        20.9639398163       10.7951583114        3.1451979064
  C        21.6854080288        9.9864744772        3.1188898556
  H        21.1462419235        9.0606095441        3.3241558267
  C        22.6578195981       10.2048249871        4.2960826311
  C        22.1725079658        9.9282337343        1.6839796027
  C        21.7452381223       10.2922531445        5.5619315294
  H        23.4423354897        9.4160746000        4.2508341639
  H        23.1649388424       11.1777351363        4.1069595789
  H        22.2493350937        8.8332270337        1.4365514463
  H        23.2413953670       10.3042305799        1.7317658497
  H        21.6387963884       10.4483075106        0.9028575914
  C        21.2666788735        8.9203695534        6.0999221515
  H        22.4949571247       10.6270778604        6.3141196385
  H        20.8936777484       10.9551654503        5.5673360205
  C        20.0742956904        8.9551803342        7.0708579389
  H        22.0991347172        8.4526041296        6.6498625722
  H        20.9283502360        8.3619009049        5.2644044414
  C        18.6843665092        8.9398999976        6.4956602948
  H        20.2295433938        9.7983483481        7.7584756469
  H        20.1759671978        8.0251627101        7.6212109361
  C        17.6092833295        9.3260292564        7.5156852637
  H        18.5113929100        9.5975667885        5.5954154557
  H        18.4818651501        7.9359490425        6.2062133369
  C        16.5808301900       10.4288788456        7.0784529691
  H        18.1336616992        9.7175259034        8.4230984444
  H        17.2026862410        8.3552543027        7.8045564152
  C        17.0351555914       11.7622884462        6.4318824503
  C        16.1448535418       11.2136408634        8.3039619313
  C        15.4304040487        9.8503467267        6.3005439008
  C        16.9001118076       12.8439808873        7.2694850255
  C        17.4762372564       12.1795261542        5.1865915596
  C        16.2643583607       12.5272211799        8.4372182759
  C        15.8285543426       10.4413807466        9.4744520138
  H        15.9161694770        9.3808780627        5.4171512283
  H        15.0461797443        8.9967055719        6.8890792338
  C        14.3105368069       10.7387402307        5.8117345928
  S        17.3259958321       14.3743611760        6.6019222597
  C        17.6792575182       13.5377052994        5.1129396343
  H        17.5024704648       11.4575444986        4.3494068872
  C        15.9152714291       13.0934133441        9.6591042090
  H        15.6411395501        9.3957727007        9.3573895387
  C        15.5240712017       11.0334390224       10.6478502805
  H        14.6504366691       11.5384538275        5.1569700052
  H        13.6898588026       11.2235849461        6.6164446090
  C        13.3142986838        9.9692383621        4.9651620577
  C        18.0597162586       14.2812677817        3.8055961185
  C        15.5236722168       12.3495370422       10.7859295898
  H        15.9700349806       14.2009570688        9.8131505985
  C        15.1286294870       10.6222986038       11.9028670154
  H        12.4736932003       10.5657681642        4.9762590109
  H        13.0909402067        8.9445663058        5.2533516012
  C        13.7541811197        9.8885246189        3.4324295636
  C        18.0370943494       15.6425469306        3.6562307319
  C        18.5559357388       13.4909387041        2.6097440410
  C        15.3180253228       13.0874120301       12.0343780782
  C        15.0201153442       11.7624687692       12.7385550510
  S        14.8315682918        9.1070992053       12.6640470415
  H        14.3394746641        9.0310332261        3.2302834432
  H        14.3540337600       10.7196943190        3.2600428761
  C        12.5818413678        9.9645897265        2.5309367014
  N        17.7403200345       16.5610078888        4.6951713200
  C        18.4740410386       16.2484328918        2.4724907164
  C        18.8830823702       14.0829074874        1.4051290598
  H        18.6875131799       12.4125708472        2.7861806767
  C        14.0244273630       14.0078636202       11.9984044313
  C        16.5301794178       13.9444868983       12.5057834240
  C        14.5938609299       11.3370861285       14.0500150683
  C        14.5127033786        9.9592700014       14.1822818244
  H        12.0635925952        9.0037911735        2.6729821690
  H        11.9527856563       10.8408475399        2.8164105348
  C        13.1387688162       10.2651791511        1.1192435816
  S        17.7363532682       18.0192496490        3.9771083389
  N        18.2764497424       17.6577025619        2.4846527394
  C        18.8462920275       15.5553727414        1.2916250560
  H        19.2328946272       13.3517073752        0.6486020359
  H        14.1602211937       14.9121276655       11.4526882547
  H        13.9158451073       14.3149581678       13.0766067791
  C        12.7370295718       13.3902164844       11.4691121165
  H        16.6302540610       14.7284909332       11.7629007912
  H        16.1780264775       14.5151965699       13.3941322257
  C        17.8078064026       13.1783002175       12.6617258255
  H        14.5281791330       12.0438539686       14.9045551672
  C        14.1844980520        9.2275458210       15.4434482019
  H        13.8151632219        9.4980260101        0.8608074799
  H        13.5466073612       11.2575997576        1.1583608223
  C        11.8414254295       10.2265345403        0.2870424338
  C        18.8835822435       16.3063665140        0.0919120731
  H        12.8518923109       12.4771055357       10.8171453905
  H        12.0277590583       13.1296061949       12.2594117414
  C        11.8851388499       14.4927461419       10.7391228680
  H        18.0430524258       12.6583350192       11.6879579995
  H        17.5908370159       12.3711572038       13.4152155655
  C        18.8780569662       14.0501660920       13.2375567214
  C        14.0959160210        7.8191541665       15.5273909217
  C        13.7829616172        9.9418600289       16.7075358502
  H        11.4638213372        9.1718236902        0.3196368071
  H        11.0832395397       10.9095520840        0.6618180174
  C        12.0059009445       10.6207486734       -1.1655131878
  H        18.6096180968       17.3577539916        0.1697794525
  C        19.2080437074       15.8892000671       -1.1636653410
  H        12.6388678296       15.0591848157       10.1638623051
  H        11.4834254437       15.2645686938       11.3867926944
  C        10.8493343105       13.9491595416        9.8513875917
  H        19.1799955874       14.8207104259       12.6443653488
  H        18.4442840697       14.4648703647       14.1744808398
  C        20.1479692040       13.2205997994       13.6536676475
  N        14.3514903589        6.9004451558       14.4746919572
  C        13.8653424219        7.1484542758       16.7204450350
  C        13.5831181551        9.2701039215       17.9337605749
  H        13.8293223543       11.0671882738       16.6954847190
  H        12.4876567465       11.5963572333       -1.3843828773
  H        11.0587393880       10.7180748372       -1.6751309207
  H        12.5115206525        9.7859240632       -1.6191528932
  S        19.4783525399       14.2906572374       -1.8169755355
  C        19.4939391973       16.9455182945       -2.1749003805
  H        10.7071770975       14.5243842202        8.9557282353
  H        11.0231100876       12.9102954857        9.4607583553
  C         9.4331029873       14.0995479398       10.3995408140
  H        20.6977527530       12.9293159590       12.7631258696
  H        19.8288934478       12.3305811742       14.1770688956
  C        21.0003595979       14.1244189889       14.5941680058
  S        14.1307217599        5.3746192579       15.0173725244
  N        13.7781054418        5.7108893572       16.5675397486
  C        13.5782335031        7.7711047854       17.9707594167
  H        13.4987439623        9.8517686228       18.8054018297
  C        19.7277059800       15.0398060753       -3.3629128174
  N        19.7405392263       16.3917234008       -3.3592174478
  O        19.4855052579       18.1321892897       -1.9393123191
  H         9.4423641000       13.5792704956       11.2985181204
  H         9.2346931405       15.1318174075       10.6079863781
  C         8.4083799220       13.4886788093        9.4540928497
  H        20.4555786213       14.3920161991       15.4802770351
  H        21.8413412087       13.6014284791       15.0073718614
  C        21.5004565119       15.3165438504       13.8866997797
  C        13.5246279548        7.0133009317       19.1574356854
  S        19.7915902334       14.0734992568       -4.8803803656
  C        19.8144220934       17.2019184618       -4.5981411553
  H         8.1003306150       14.1984507755        8.6974885154
  H         8.8538467321       12.6935726319        8.9244307568
  C         7.2081746940       12.9420881529       10.2321501622
  H        21.0296579286       15.6290959302       12.9735005040
  H        22.4731079802       15.0511572877       13.4160059666
  C        21.5820405611       16.4862689337       14.8452213105
  H        13.7564088023        5.9471434344       18.9953152293
  C        13.0941762051        7.3719827350       20.4383158881
  H        20.4203355511       16.6385520179       -5.3037793861
  H        20.2690065658       18.1679628607       -4.3583048868
  C        18.4363559967       17.4509560676       -5.0969261598
  H         7.2681827190       13.2078928031       11.2263501248
  H         7.2620810382       11.8866054176       10.2123576472
  C         5.8365530957       13.4667245123        9.7730950070
  H        21.7564845337       17.3334000962       14.2211029185
  H        20.6451267078       16.7178884739       15.3059364221
  C        22.7771927850       16.4291330993       15.7583079548
  S        12.3509328080        8.8615580486       20.9841677334
  C        12.9092192312        6.1810032518       21.3186444891
  H        17.8728031739       16.5583175858       -5.0625358188
  H        18.3548358365       17.7181117803       -6.1506841183
  H        17.7741740892       18.2251115379       -4.6118363297
  H         5.1332460898       12.7496064527       10.1430150707
  H         5.5550055538       14.3499405677       10.3228519386
  H         5.7095844491       13.6595550279        8.7318736046
  H        23.0808567923       17.4849700748       15.9569435389
  H        22.6267830019       15.8718174947       16.6789216365
  H        23.4974682343       15.8123076439       15.2539933392
  C        11.8380992602        7.8371047899       22.4035213207
  N        12.1459437552        6.5521611639       22.3436800195
  O        13.4577667292        5.0904758443       21.1474500675
  S        11.3016226873        8.4525361932       23.9800718571
  C        12.1476487621        5.6965050037       23.5183373126
  H        12.1954646125        4.7042410895       23.1404193200
  H        11.1956022564        5.6743793894       24.1052641426
  C        13.2925433565        5.6605765435       24.5056657446
  H        13.5768244734        4.5708038194       24.6882559251
  H        12.8649228499        5.9611778391       25.4687583540
  H        14.1750026953        6.2639053487       24.2348097351
