352
 i =    31900, time =    31900.000, E =        25.5291443041
  H        12.1953506054        5.1869880144       32.4287125234
  C        11.0840900701        5.4221760105       32.3423389636
  H        10.5977043909        4.6141846809       31.9300299950
  C        10.9727476402        6.6688990639       31.4034534157
  C        10.6049130477        5.7399310305       33.8041137593
  C        11.3832081150        6.4170957526       30.0141878899
  H         9.9775905808        7.0090971577       31.3917959457
  H        11.5221431743        7.5610527451       31.7352988848
  H         9.7632627720        6.3980698538       33.7572771451
  H        10.4308112610        4.8852863963       34.4295840798
  H        11.5033734480        6.3086796968       34.1211555458
  C        10.1700317428        6.1793653283       29.0081743507
  H        12.0437547239        5.5352498560       30.0248736765
  H        12.0329743736        7.2015704054       29.6186368772
  C        10.6996858693        6.2092397145       27.5567007191
  H         9.7179739517        5.2448386058       29.2140960608
  H         9.4765405091        6.9808756140       29.1134251409
  C         9.8930277115        5.2907656237       26.6485990233
  H        11.6130126378        5.6805455700       27.5248717262
  H        10.7471210013        7.1967640840       27.1644411578
  C         8.6333939571        6.0737650106       26.1539277569
  H        10.4786853744        4.9613142912       25.8076962229
  H         9.6272638559        4.3974617693       27.1801383792
  C         7.5007594201        5.2668531832       25.3667276502
  H         8.0783866709        6.5299445010       27.0214123754
  H         8.9067995169        6.9366466354       25.6018438038
  C         7.3520147085        3.9073471086       26.0887517008
  C         8.1189868232        4.5192505463       24.2274296258
  C         6.1516513824        6.0491293640       25.1304641712
  C         7.6619387964        2.8298456326       25.2769778519
  C         6.8707464382        3.4597614646       27.3086495063
  C         8.2575268215        3.2057684000       24.0967268013
  C         8.5336271066        5.2579843595       23.0745471104
  H         6.3201847453        6.7966053181       24.3297492929
  H         5.9255104777        6.6166722161       26.0204165131
  C         4.9364529248        5.1966463498       24.7176895653
  S         7.2106564283        1.3429360614       25.9879945687
  C         6.6961562081        2.1205989530       27.4013309129
  H         6.7478923053        4.1925048491       28.1286867963
  C         8.8187001640        2.6103753524       23.0271161519
  H         8.3892437247        6.3065364341       23.1385213068
  C         8.9439565704        4.6629375396       21.9319853003
  H         5.1522439925        4.6600775572       23.7715596439
  H         4.8286581122        4.4438596598       25.4770431933
  C         3.5279906964        5.8551441970       24.6549225906
  C         6.1013996949        1.4025791144       28.5883745186
  C         9.1098543012        3.3454243456       21.8610006164
  H         8.9091870006        1.5689091712       22.9722725413
  C         9.3604443127        5.1320982628       20.7571631707
  H         2.9033296187        5.3281276132       24.0350144761
  H         3.6868597959        6.8370572939       24.1656321320
  C         2.9002989371        6.3218856172       26.0240876842
  C         6.1924675725        0.0326554880       28.9420842679
  C         5.3971662078        2.2738481609       29.5799307604
  C         9.4398500094        2.7043504787       20.6407585150
  C         9.6600421174        4.0823515651       19.9194181129
  S         9.3440125414        6.6541355761       19.9822568210
  H         2.1066295565        7.0361707143       25.7327089703
  H         3.6172724937        6.9258880767       26.5705524464
  C         2.3231110875        5.0035168127       26.8186903730
  N         6.7438321154       -1.0368473339       28.2346275641
  C         5.7477254692       -0.4335454942       30.1720346003
  C         5.0029610728        1.8599438953       30.8298904561
  H         5.3258649806        3.2594314480       29.3494014668
  C         8.2455476958        1.9086794329       20.0262934949
  C        10.7036119637        1.8255142255       20.6794360604
  C         9.9916044548        4.5633376912       18.6757684154
  C         9.9323145733        5.8546929336       18.5524947059
  H         1.7650823218        4.4090428015       26.1124289040
  H         3.1925336201        4.3480190645       27.0348247453
  C         1.5450472292        5.2110847099       28.0842909260
  S         6.6704899945       -2.3789089865       29.0989465851
  N         6.0471905927       -1.7927687093       30.4450038992
  C         5.2959599986        0.4221807164       31.1924838635
  H         4.4867530776        2.5666430611       31.5007912168
  H         7.9896175077        1.1465336494       20.8030801969
  H         8.5743503500        1.4435537181       19.1133136729
  C         6.9627962478        2.7501558877       19.6040940950
  H        10.9805439875        1.6107816326       19.6187522799
  H        10.6165438400        0.8465896804       21.2250793816
  C        11.9525517498        2.4624482278       21.2935960208
  H        10.3006253409        3.8769908411       17.8971785764
  C        10.1552186992        6.5996477651       17.2468675383
  H         1.2348821833        4.2732993677       28.6170952694
  H         0.5272691592        5.7071624132       27.9701155163
  C         2.2142667534        6.0276818501       29.2587250196
  C         5.1394068456       -0.1176724135       32.4654679940
  H         7.2999585958        3.5152843721       18.9188948806
  H         6.6241059048        3.2162905605       20.4630587983
  C         5.9097135235        1.8420304677       18.9355963989
  H        11.8432788803        2.5975437715       22.3711379882
  H        12.1140579320        3.5028191176       21.0244020641
  C        13.1654293583        1.6902103223       20.9154689516
  C        10.1853380189        8.0268216951       17.1032701841
  C        10.3111273464        5.8669355587       15.9801239476
  H         3.2296653374        6.3545115117       29.0735577206
  H         1.6334359789        6.9113311086       29.4762243231
  C         2.3077071036        5.1182590757       30.5527121349
  H         5.1770748359       -1.1952191024       32.5659429966
  C         4.8442551412        0.4546906373       33.6745510711
  H         5.8209105063        0.8139244493       19.3460322854
  H         6.2808505903        1.7432612248       17.9280006921
  C         4.5594505682        2.5988552586       18.9074226980
  H        13.1701954062        0.7562151695       21.4320352051
  H        13.1177256789        1.3506455914       19.8418525237
  C        14.3964305144        2.6091275640       21.1196131010
  N         9.8211659940        8.9024696983       18.0714120540
  C        10.5670588780        8.6206097042       15.9209409167
  C        10.5847462901        6.5097807351       14.7611074297
  H        10.2304112664        4.8206504272       16.0822393403
  H         1.3761187846        4.5778759618       30.7840919309
  H         3.0875871922        4.3844363990       30.2573934720
  H         2.7500645686        5.5834212055       31.4205902395
  S         4.6396729483        2.1063413659       34.1467463320
  C         4.7126034775       -0.4430754408       34.8362964109
  H         4.4666882570        3.2839371224       19.7052225471
  H         4.5708881950        3.3723567236       18.2031011074
  C         3.2352747228        1.6824488432       18.8040327251
  H        14.4790057526        3.4666785566       20.4648751938
  H        15.1485339250        1.9506547999       20.8194377039
  C        14.6306905299        3.2048744395       22.5064728205
  S         9.9756588460       10.4465474808       17.5605709039
  N        10.5901137560       10.0647894199       16.0199664878
  C        10.8587895120        7.9615657679       14.7639578937
  H        10.5933954210        5.8650444640       13.8557443462
  C         4.4245781858        1.5263103007       35.8335511885
  N         4.4118724445        0.1900595150       35.9686195267
  O         4.8800036942       -1.6731673430       34.7459780022
  H         2.4105449499        2.2338351672       19.1382495762
  H         3.2007014050        0.8326579061       19.6202855027
  C         3.0928461351        0.9502130063       17.3888050447
  H        14.9637792415        4.2827528740       22.3909243438
  H        13.6985461751        3.3702195790       23.0273270939
  C        15.6730490252        2.3084824933       23.2885328081
  C        11.0813138896        8.6902017721       13.5718106731
  S         3.7475165327        2.4640250883       37.1819474769
  C         4.3193537458       -0.4893718181       37.2705858473
  H         2.2351294100        1.3463700317       16.8540550966
  H         3.9164592979        1.2662630857       16.8136985862
  C         3.0231559135       -0.5621101364       17.4512675589
  H        15.8788515569        1.3281586252       22.8410698968
  H        15.3330377019        2.0868880665       24.2562251411
  C        16.9964074911        3.0699513538       23.3749150380
  H        10.8062203984        9.7076874198       13.7197927050
  C        11.4558280489        8.2772579593       12.3295328154
  H         3.5887848428       -0.0662396183       37.9990890743
  H         4.0468661998       -1.5371712530       37.1382155630
  C         5.6903566016       -0.5467923790       37.9819658479
  H         4.0223356454       -0.9544171883       17.6242959138
  H         2.8925772523       -0.8979451777       16.4100966002
  C         1.9593682487       -1.1090647476       18.3616721941
  H        16.8859678543        4.1229572969       23.2504741991
  H        17.3024276002        2.9951945347       24.3906240850
  C        18.1601148936        2.4600490417       22.5426992466
  S        12.0256482902        6.7166191301       11.7734426724
  C        11.4522021526        9.3043542513       11.2976823241
  H         6.5585340758       -0.0785071968       37.5120926771
  H         5.4917515661       -0.0064587761       38.9073103673
  H         5.9349850441       -1.5827240894       38.2665732939
  H         1.6033852314       -2.1414967997       18.1026152127
  H         1.0875880515       -0.5010694473       18.3672766960
  H         2.2576548445       -1.0664048474       19.4053110128
  H        18.4355853510        1.3484438406       22.6796367258
  H        19.1022005896        3.0236496746       22.7048463453
  H        17.8668016393        2.5524457471       21.5328323037
  C        11.9266108416        7.3850839093       10.1371018633
  N        11.8478322691        8.7744354753       10.1073397951
  O        11.0988483788       10.4810531763       11.5456068449
  S        12.2416112896        6.4750645766        8.6689347963
  C        11.7656206150        9.5667122610        8.8448420581
  H        11.7689271102       10.6156886860        9.2392601401
  H        12.5999518611        9.4312410299        8.1622076192
  C        10.3530051930        9.3529898798        8.0628815663
  H        10.2503171918       10.1309832930        7.3579484633
  H        10.4002231260        8.4614358044        7.4506249048
  H         9.5122012125        9.2999931995        8.6783234779
  H        21.4147934094       11.1586482519        3.5994660889
  C        21.9710262706       10.1808561934        3.6085214006
  H        21.1161498075        9.5267678967        3.7205482745
  C        22.8507375574       10.1698034264        4.9028631510
  C        22.7808869793        9.8687669816        2.3836057147
  C        22.0975335788       10.5244035875        6.1687186585
  H        23.3759819018        9.2491095190        5.1427019524
  H        23.6639635726       10.8459977930        4.6803708877
  H        23.0308315657        8.8567887423        2.3341577223
  H        23.7090634676       10.3770289772        2.4005921483
  H        22.2670570551       10.0184490039        1.3986710610
  C        21.0991559446        9.4533131366        6.7234668701
  H        22.7141752739       10.9836362081        6.9671276044
  H        21.4810872688       11.3996510776        5.8584684431
  C        20.3971297538        9.8563823637        8.0020486378
  H        21.6491948488        8.4784254814        6.8304998643
  H        20.2905967903        9.3106989676        5.9975152432
  C        19.1184810517       10.7526451546        7.7178524519
  H        21.0741818218       10.3554156263        8.7204074911
  H        20.0806284567        8.9284873028        8.4685979368
  C        17.9010063955        9.9745203900        7.3947227631
  H        18.9623012331       11.3632866644        8.5061986353
  H        19.5384764474       11.3431387138        6.9113981502
  C        16.6141210117       10.8178010501        7.3222530834
  H        17.6148071557        9.2126558054        8.1750704552
  H        18.0382184651        9.4435252719        6.4773445477
  C        17.0184081992       12.1306881303        6.6606809912
  C        16.3437127546       11.5041050165        8.5798812638
  C        15.4369707029       10.0488686775        6.7227244634
  C        16.9149293412       13.2575878692        7.4998943685
  C        17.4424337178       12.4567693463        5.4231687170
  C        16.5245151126       12.8278336535        8.6978672872
  C        15.8709271296       10.8507740505        9.7238626340
  H        15.6281781608        9.6381333266        5.7550268253
  H        15.1651299628        9.2227527751        7.3216279327
  C        14.2853408699       10.9283733055        6.4852168847
  S        17.4493780824       14.6851676030        6.6379970057
  C        17.6231172907       13.8072715000        5.1629993775
  H        17.4934833416       11.6017774768        4.6358518766
  C        16.2903892337       13.4994849218        9.8349268645
  H        15.6788622232        9.7731366837        9.6719346381
  C        15.5372481486       11.4968012538       10.8632772500
  H        14.5840352737       11.9617388862        6.2569817117
  H        13.8170333537       11.0264653740        7.4443230462
  C        13.2511015860       10.4427414194        5.4813463949
  C        18.1311224189       14.5079200996        3.9844519375
  C        15.7504478226       12.8439912572       11.0106375419
  H        16.4732236289       14.5539627654        9.9051498621
  C        14.9991850609       11.1114427112       12.0833175421
  H        12.3060824796       10.8349744584        5.7080291318
  H        13.1631075817        9.3321035777        5.4019016700
  C        13.5587818082       10.9226993093        4.0810112133
  C        18.0923934797       15.8748603816        3.6725401950
  C        18.5799205232       13.6608896112        2.8918467018
  C        15.3415509735       13.5904368187       12.2117143457
  C        15.0133288106       12.2369581889       12.9506856808
  S        14.5417661154        9.5893293043       12.8849722901
  H        14.4861049722       11.5259348609        4.1344578192
  H        12.7757184986       11.5377629880        3.8116683804
  C        13.6605110561        9.7264126800        3.1264078747
  N        17.7455180374       16.8935058703        4.5494020632
  C        18.4406343408       16.3962299182        2.3907876823
  C        19.0437809879       14.1862212054        1.6993629581
  H        18.6713367442       12.6163175043        3.1466758549
  C        14.0601257197       14.4385965413       11.8786311740
  C        16.4991233176       14.4209803415       12.8011774219
  C        14.5227744573       11.8045328269       14.2297283845
  C        14.4174609611       10.4875106846       14.3579029584
  H        14.5365318229        9.0814804451        3.4353908680
  H        12.7639520272        9.0572952531        3.3714243494
  C        13.6470821259       10.2934886015        1.6864132456
  S        17.6916224401       18.3443294599        3.7504921103
  N        18.2004347664       17.7304938492        2.3071422837
  C        18.8889880632       15.5912555562        1.3388876514
  H        19.4522486524       13.4420578099        1.0002207417
  H        14.2900860398       15.2601939783       11.1728213965
  H        13.6384405799       14.8720247878       12.8080956946
  C        12.9855207984       13.5474842307       11.1943400334
  H        16.8964316913       15.0958248149       12.0044368371
  H        16.1822416340       15.0480431482       13.6523358145
  C        17.6851258780       13.5876210929       13.2268324148
  H        14.4038734791       12.5370293662       14.9859077942
  C        13.9504176988        9.7914905454       15.6075750752
  H        14.6288833988       10.4357977239        1.3624714877
  H        13.1319181394       11.2698417943        1.6747517699
  C        12.9125437802        9.4044267838        0.6868946320
  C        19.2020895627       16.1415301048        0.0612503386
  H        13.2929118686       12.9826227415       10.3444914984
  H        12.7295002470       12.9007515248       11.9561889233
  C        11.7158967590       14.3537868486       10.8209958668
  H        18.0972298240       13.0568731914       12.3436040445
  H        17.4862153943       12.8630458510       14.0252975566
  C        18.8121205450       14.5444448542       13.6155253916
  C        13.9396642916        8.3382675880       15.7365017386
  C        13.7057859666       10.6362150478       16.8224087435
  H        13.3429900094        8.4194652014        0.8165322346
  H        11.8492511034        9.4333447804        0.9344037718
  C        13.0126645978        9.7460616144       -0.7738640572
  H        19.0470583295       17.2239498778        0.0333622046
  C        19.5037543746       15.6453727307       -1.1433444761
  H        11.9708667922       15.1711495891       10.2414788487
  H        11.4608265822       14.7362113250       11.7937244300
  C        10.6031190149       13.4444439231       10.3291638348
  H        19.1095669183       15.1360027459       12.7555199409
  H        18.5277573195       15.2914263455       14.3606763695
  C        19.9366303667       13.8077584730       14.2174529227
  N        14.2791386464        7.3591924926       14.7686206564
  C        13.4135510758        7.7620915361       16.8367468295
  C        13.4907616758        9.9804392991       18.0447634425
  H        13.8016227914       11.7247470359       16.8521640503
  H        14.0133265634       10.0454481753       -1.0294944489
  H        12.3646936296       10.5826047165       -1.1391208644
  H        12.8498620086        8.8261404426       -1.4336921809
  S        19.8354212269       14.0399109163       -1.5615472724
  C        19.5933509605       16.6775223556       -2.1884990082
  H        10.9790544710       12.9028786587        9.4297836096
  H        10.5855902925       12.7027611495       11.0790496367
  C         9.2985523623       14.1505324070       10.0176093499
  H        20.1077766436       13.0245157378       13.5450517089
  H        19.6868870031       13.3695410070       15.1660406817
  C        21.1918327772       14.6472987342       14.3126280189
  S        13.9671147853        5.9360843876       15.3832082369
  N        13.4796192312        6.4039008732       16.8265070105
  C        13.1789463515        8.5100009981       18.0102883499
  H        13.3198507117       10.6036610437       18.9124033085
  C        19.8950939459       14.6696616757       -3.2598973491
  N        19.8840520881       16.0391013274       -3.3836720253
  O        19.4995272362       17.9102658537       -2.0609743946
  H         8.8321784923       14.4370512146       11.0083809803
  H         9.5237903431       15.0271914808        9.4995376300
  C         8.3885938656       13.2564819981        9.2757056900
  H        21.9835608204       13.9556083391       14.2822186852
  H        21.2710359932       15.2397156311       13.3795530330
  C        21.3773917196       15.5027666019       15.6233147923
  C        12.8732119317        7.8016373042       19.1925579147
  S        20.4174952369       13.7854635935       -4.6457036222
  C        19.9490298887       16.8288983742       -4.6523925033
  H         8.8032400777       13.2481278336        8.2915054062
  H         8.4706088196       12.2601205526        9.6145595021
  C         6.8652357485       13.6332020301        9.2472457382
  H        21.5669658401       14.7084459179       16.3977992716
  H        20.3559253389       15.8798134926       15.6951405639
  C        22.4095383347       16.6405237772       15.5005976696
  H        13.3803464962        6.8618369074       19.2491573134
  C        12.3716781801        8.1680869664       20.4159961557
  H        20.5519493679       16.4722326960       -5.4254060161
  H        20.4185524515       17.8093995640       -4.6707175405
  C        18.5198481217       17.0073417103       -5.2832897225
  H         6.3533040139       13.2933904452        8.3499928843
  H         6.8329258266       14.7100856828        9.0041129184
  C         6.1537656719       13.1903335973       10.4784466329
  H        22.4096949740       17.2990749044       16.3571430640
  H        23.3944550156       16.1994530798       15.3815705237
  C        22.1884295891       17.5414933034       14.2292316768
  S        11.6918727871        9.6422649450       20.7863575904
  C        12.4629681247        7.1807550663       21.5336379270
  H        18.5222637604       16.5153932031       -6.3173412296
  H        18.3276053014       18.0301656148       -5.4787406130
  H        17.6621528628       16.6525359911       -4.7083184126
  H         6.8253918113       13.0979670412       11.3944858653
  H         5.3438173152       13.7996948907       10.7431903312
  H         5.6437412395       12.2610973116       10.3511172777
  H        21.1173537701       17.4326451436       13.9282644053
  H        22.4743322260       18.5708886215       14.4075062692
  H        22.7997371405       17.0767623152       13.4805622547
  C        11.2778268499        8.8258502227       22.3721830361
  N        11.7649600511        7.5645109086       22.5576778924
  O        12.9301043851        6.0476892925       21.2916332401
  S        10.6120701037        9.7251443991       23.7709843095
  C        11.5638077137        6.7200557158       23.7360828400
  H        11.5229872546        5.7342376955       23.3943309628
  H        10.6581037130        7.0181534393       24.2453949643
  C        12.7672732527        6.8553309446       24.6555927201
  H        13.7675598812        6.6950933578       24.2067769988
  H        12.7012509699        6.0470997019       25.4185941961
  H        12.7240633896        7.8035862659       25.2146944682
