352
 i =    78200, time =    78200.000, E =        24.8197513131
  H        10.4934139942        6.5597455732       32.2153606840
  C        11.5739512535        6.1765960754       32.2962688145
  H        11.9378009186        7.1058349180       32.8168304977
  C        12.1840124559        5.7594430622       31.0066373439
  C        11.7009582955        5.0431773208       33.3362940016
  C        11.1685033667        4.9924126044       30.2006229565
  H        12.4878204812        6.5964975198       30.4243933310
  H        12.9837766682        5.0362701550       31.2225510834
  H        12.5171288121        4.3133841501       33.1902528224
  H        11.9616825509        5.4897720633       34.3029555088
  H        10.7071541911        4.5631558040       33.3967215319
  C        10.5076974102        5.9200734425       29.1576819114
  H        10.3616699131        4.7751747471       30.8838414475
  H        11.4943022028        4.0483002415       29.8040080149
  C        10.9686247497        5.6525574137       27.7549819720
  H         9.4735181465        5.6608356254       29.1773392434
  H        10.5607081590        7.0187861185       29.3300407072
  C         9.8388865445        4.9235312996       26.8629892153
  H        11.7770855092        4.9124283607       27.6984545115
  H        11.3722880488        6.5338232850       27.2545869578
  C         8.6538674910        5.7848368596       26.3440064555
  H        10.2549457423        4.5625854921       25.9814070311
  H         9.4987729538        4.0050784169       27.2625960183
  C         7.5770222398        4.9714916238       25.5395471005
  H         8.2911833510        6.1994643633       27.2849956109
  H         9.0198979792        6.6932496006       25.7648238015
  C         7.2449963277        3.6367237618       26.2499799578
  C         8.0453865284        4.2473137472       24.3103061617
  C         6.2763761276        5.7591512155       25.1396371833
  C         7.4786936773        2.5518480693       25.4736843606
  C         6.7767049349        3.3160742196       27.5121985403
  C         8.0039856323        2.9215042601       24.2334361450
  C         8.4589967286        4.9067989757       23.1659496589
  H         5.7588265672        5.1383112122       24.4152948505
  H         6.5787210392        6.6497488569       24.5239740395
  C         5.4142690522        6.2833162815       26.2940009548
  S         7.1016011337        1.0595504723       26.2615652792
  C         6.5503592970        1.9379226958       27.6376360203
  H         6.5736786920        4.1126558102       28.2337402242
  C         8.3394630223        2.3328428317       23.0433656015
  H         8.5479279930        5.8937129520       23.1628939025
  C         8.8618455681        4.3350522193       22.0005336414
  H         5.4329694550        5.5613201995       27.1721344275
  H         5.7425721551        7.2233758917       26.6197188098
  C         4.0108607199        6.3665206290       25.7478211420
  C         6.1253966886        1.2972183357       28.9283738675
  C         8.8496704504        2.9908173623       21.9340883436
  H         8.2335177799        1.2903167973       22.8563961951
  C         9.1459828597        4.7122837357       20.7591391823
  H         3.6942780399        5.3640428729       25.4466235803
  H         3.9605109019        6.9966395301       24.9124548726
  C         2.8196406159        6.6569539334       26.6865135149
  C         6.0622014488       -0.1484576876       29.1858281698
  C         5.5602415234        2.1618851650       30.0051428313
  C         9.1540727882        2.2693200617       20.7004154581
  C         9.4407111182        3.5892879642       19.9959158667
  S         9.4521108266        6.1608712130       19.9106609933
  H         1.9739157317        6.9694841756       26.0654782416
  H         3.1760238270        7.5845572592       27.1470663001
  C         2.5222496184        5.6598163233       27.7411993655
  N         6.5182855919       -1.0975143714       28.2830397195
  C         5.8024354084       -0.6977481053       30.4254400975
  C         5.3330681475        1.6083821216       31.2315854028
  H         5.5886361372        3.1878461325       29.8190655332
  C         7.8530412369        1.5838865493       20.0627841106
  C        10.4622669130        1.3689812857       20.6647408005
  C         9.8760077474        3.9495924693       18.7281618708
  C         9.8780911501        5.3010230725       18.5225606366
  H         2.0843375106        4.7630593126       27.3133148621
  H         3.4452597763        5.3230836023       28.2671727768
  C         1.5131585071        6.1849745488       28.7756527399
  S         6.6504973272       -2.5456510463       29.0320529490
  N         6.0834935086       -2.1156708626       30.5280545544
  C         5.4018109558        0.1326215567       31.5389509572
  H         4.9959586617        2.2848774202       31.9968115429
  H         7.4550939577        0.9572441676       20.8145995699
  H         8.1891172208        0.8807816165       19.3401992277
  C         6.7084799467        2.5274135238       19.6591082717
  H        10.7168118134        1.1852970319       19.5946612299
  H        10.3050136467        0.2983735362       21.0139226856
  C        11.6287653821        1.9775830921       21.4468939626
  H        10.1032268127        3.1833795362       17.9791393293
  C        10.1328724811        6.0134381578       17.2757979091
  H         0.7336186693        6.6420160558       28.2100965973
  H         1.9595551031        7.0172070272       29.3091049034
  C         0.9268816043        5.2147733905       29.8086490737
  C         5.2348874884       -0.5470458170       32.7746986259
  H         7.0369344973        3.1726733307       18.8434481973
  H         6.5451206381        3.2447068675       20.4410407389
  C         5.3486561768        2.0239419038       19.2885117859
  H        11.3274659991        2.2417958070       22.5146270081
  H        11.9635318882        2.9492055658       21.0953487881
  C        12.9407992388        1.1381204679       21.4495874350
  C        10.0778269439        7.3893553557       17.0437275651
  C        10.2529133689        5.2381682047       16.0042353577
  H         0.1478227080        5.6496458333       30.3975272526
  H         0.4768354831        4.3003387861       29.3681104778
  C         2.0638462054        4.8965083298       30.8185042501
  H         5.2666186796       -1.6423837815       32.7186282004
  C         4.9220464187       -0.0404663797       34.0548419164
  H         4.6901477933        2.8758388654       19.2403698833
  H         4.9522554107        1.4598238954       20.0657300777
  C         5.2844702423        1.1246646267       18.0907862441
  H        12.6646701215        0.3978750517       22.1465356963
  H        13.1226582744        0.6025441517       20.4815337251
  C        14.0894149741        2.0443348811       21.8516888292
  N         9.7944047842        8.3429450180       18.0670594459
  C        10.2605944963        7.9972708230       15.8410847792
  C        10.3972567994        5.8503648582       14.7579408562
  H        10.2412461466        4.1364325128       15.9353945992
  H         2.3953110565        5.7249261005       31.4703689356
  H         1.5099576066        4.2045938173       31.5148394041
  H         2.9578845022        4.3561681215       30.4014465246
  S         4.6026979366        1.5392097933       34.4206864110
  C         4.8383682888       -0.9953503540       35.1860943365
  H         5.7675386386        1.6952231497       17.2024418111
  H         5.8444426768        0.2406908685       18.2576999270
  C         3.8322937374        0.7554958842       17.7945620827
  H        13.7685386507        2.8300504065       22.5145744543
  H        14.5131850094        2.6259815617       20.9408745290
  C        15.2236369224        1.2800155137       22.5547696588
  S         9.8171825347        9.8058318356       17.3858108228
  N        10.1269427541        9.3612493116       15.8766980308
  C        10.3939536775        7.2816190210       14.6172352199
  H        10.5435780060        5.2561446752       13.8504451893
  C         4.4275937177        0.9986460914       36.1381023211
  N         4.5969882372       -0.3014961159       36.3073757414
  O         4.9925674673       -2.1626040296       35.0474771008
  H         3.6254112965        0.7618793597       16.7338575695
  H         3.1486453695        1.4443909358       18.3391222659
  C         3.5850677072       -0.7063646475       18.1732420996
  H        14.5739111006        0.7529408314       23.2877442348
  H        15.7269600540        0.5384782434       21.9490877843
  C        16.0664832267        2.2667895203       23.4207548733
  C        10.6032618961        7.9015642051       13.3685316417
  S         3.7411252474        2.0931620853       37.4063952104
  C         4.4958849375       -0.9330177781       37.6176626180
  H         4.3071632216       -1.2617009499       17.5166603925
  H         3.9357047069       -0.9139246487       19.1780119026
  C         2.1334013612       -1.1848154535       18.1221598725
  H        15.3776803056        2.7876569524       24.1454767783
  H        16.3555390369        3.1289612528       22.8328210259
  C        17.2266973316        1.5654214745       24.1920036564
  H        10.1731142658        8.8477381816       13.3386828018
  C        11.3608544206        7.5940070159       12.2394106846
  H         3.9864922822       -0.3261397532       38.4003212337
  H         3.7804935866       -1.8334223768       37.5461159016
  C         5.8858953104       -1.4335600125       38.1875973975
  H         1.3905946338       -0.4673298343       18.4574495649
  H         1.9744538852       -1.9229795305       18.9164634791
  C         1.8649156575       -1.7698235602       16.7612257858
  H        17.4961949121        2.0614372684       25.1006960592
  H        17.0039421088        0.5725073973       24.5321321157
  C        18.4576272067        1.4111942864       23.2820523685
  S        12.1501201586        6.1010934874       11.9618990310
  C        11.4494035756        8.5945876863       11.1542299357
  H         5.9615403931       -1.2337937342       39.2797830347
  H         6.0224907291       -2.4858635550       38.0899687132
  H         6.7348806976       -0.9189364746       37.8097785191
  H         1.5855871494       -1.0409072169       15.9871881667
  H         0.9789200945       -2.4610065617       16.7956089745
  H         2.6638568380       -2.3840690570       16.3162811090
  H        18.9550770437        2.2760360193       22.8600976292
  H        18.1184088653        0.7971075152       22.4773522643
  H        19.2473544965        0.9226955963       23.7854181349
  C        12.5539086921        6.7988692063       10.3714947956
  N        12.1459133130        8.0551718524       10.1494589299
  O        11.0063364123        9.7693314356       11.3171558540
  S        13.7631642403        6.0471316401        9.3534384972
  C        12.4015282656        8.8140291518        8.9305305762
  H        12.8566678078        9.7590253930        9.2272896047
  H        13.2127155293        8.3230928547        8.2346553621
  C        11.0897238327        8.9997409458        8.2327405960
  H        11.0685574154        8.2483079266        7.4331964599
  H        10.2162796151        8.9712369430        8.8910098874
  H        10.9991121125        9.9294958313        7.6238807008
  H        21.0627489239       11.1500413026        3.2459756813
  C        21.6539177475       10.2576616020        3.2682883698
  H        20.8193239158        9.4380681468        3.4330449245
  C        22.5809935825       10.4254921518        4.4804262017
  C        22.2604174104        9.9900857630        1.9313567773
  C        21.7578901337       10.4770576244        5.7148842123
  H        23.3294331129        9.6163471503        4.6322351256
  H        23.1520371538       11.3834069172        4.3928675684
  H        22.9412119154       10.7434960353        1.7335279817
  H        21.4065394333        9.8315885284        1.2192621189
  H        22.7677327966        9.0704552350        2.0050583645
  C        21.1853671321        9.1434882694        6.1327614687
  H        22.3348948937       10.7707351366        6.5754463252
  H        21.0078168139       11.3279777311        5.5664134794
  C        20.2348914097        9.3819090698        7.2538590060
  H        21.9262483123        8.2822106019        6.3096225942
  H        20.6556541093        8.7372560043        5.3157799007
  C        18.7721794219        9.2158430241        6.8281125843
  H        20.3078972386       10.4751979800        7.3212439890
  H        20.5853353691        9.1180799768        8.1619499626
  C        17.7600703657        9.6972310112        7.8772829993
  H        18.5157109489        9.6124943326        5.8612343606
  H        18.6185441674        8.1673281780        6.7596294854
  C        16.6675990076       10.6643668309        7.5063244965
  H        18.2548967919       10.3781750211        8.6264834092
  H        17.3934265327        8.8782745566        8.4438918167
  C        17.1103730739       12.0108808299        6.9277517465
  C        16.1086776902       11.3352804954        8.6923747006
  C        15.5653744726        9.9072719338        6.6506613960
  C        16.6518110820       13.0636430071        7.6349769699
  C        17.6052653861       12.3958993181        5.6684507120
  C        16.0985114033       12.6502518199        8.7942385376
  C        15.6933742931       10.6217755575        9.8163551171
  H        16.1181252698        9.3891518580        5.8466782705
  H        15.0927799773        9.0982208692        7.2553802012
  C        14.5077762268       10.8292445763        5.9479601100
  S        16.8293059633       14.5278641192        6.8058828595
  C        17.5238892402       13.7355671894        5.4345735340
  H        17.8215569755       11.5779015959        4.9902476848
  C        15.5536176619       13.2537614778        9.9270981728
  H        15.7926108317        9.5224503088        9.8037177871
  C        15.1888308768       11.1339150574       10.9274795602
  H        14.8746989810       11.2949783967        5.0526920488
  H        14.0868202276       11.5433275569        6.6154539195
  C        13.3218680529       10.0952659739        5.2081561277
  C        17.9007461101       14.3697531075        4.1831940805
  C        15.1335935838       12.4680069079       11.0882590289
  H        15.4674907255       14.2982926552       10.1477431500
  C        14.8012193130       10.7061069165       12.1380027716
  H        12.5634450840       10.8013341053        4.8449899393
  H        12.8559033286        9.4009919125        5.9113247685
  C        13.8150571667        9.2903277225        4.0468899765
  C        17.8574663364       15.7544735616        3.8955095614
  C        18.4572912591       13.5298225168        3.1144307856
  C        14.6573704720       13.1290793221       12.3275459486
  C        14.5104246359       11.7815063172       12.9725490751
  S        14.6332157076        9.1431595302       12.9103289269
  H        13.1135277258        8.4417219584        3.9651983084
  H        14.7899919498        8.8612082090        4.1141221865
  C        13.7777643907       10.1041817705        2.7862551975
  N        17.3180704618       16.7675011698        4.7580491894
  C        18.0565479199       16.2356614457        2.6057974839
  C        18.7092410796       14.0484580523        1.8928540136
  H        18.6919842210       12.4809974057        3.2960411642
  C        13.2873480594       13.8988347750       12.1339903338
  C        15.8048838964       13.9730739689       12.8207870011
  C        14.1921772365       11.3530903080       14.2723058207
  C        14.1540566886        9.9650532012       14.3388573874
  H        13.1356294510       10.9630025041        2.7976723396
  H        14.6904088905       10.7418745827        2.6862519725
  C        13.5855572004        9.1343475415        1.5911677045
  S        17.2407654119       18.1556549309        3.8746286979
  N        17.8852449134       17.6342217606        2.5231973749
  C        18.4846796239       15.4257599601        1.5479648864
  H        18.9408297626       13.3523556130        1.1389148768
  H        13.3888119822       14.5294673916       11.2237774993
  H        13.0891172568       14.5763883275       12.9134668413
  C        12.0753136325       12.9940281782       11.9962174238
  H        15.9314576060       14.8789398655       12.1770256458
  H        15.5258778407       14.3850350080       13.7723498888
  C        17.1013857125       13.1259083575       12.9257338560
  H        13.8966187326       12.0117590834       15.0538123090
  C        13.8405569165        9.1403084395       15.5925527741
  H        12.8315499374        8.3638701292        1.8820391119
  H        14.4923501990        8.6075673201        1.6121362253
  C        13.3120610174        9.6433100335        0.1990104406
  C        18.6341925790       15.9812186557        0.2217505454
  H        12.3491274696       12.1242321925       11.3823187924
  H        11.6665441418       12.5531135266       12.8805463336
  C        10.9193295675       13.7090178829       11.2863608999
  H        17.4386156103       12.7235331309       11.9885656095
  H        17.1147801811       12.2211692892       13.5455933814
  C        18.3168360001       14.0528849987       13.3781340718
  C        13.6849828880        7.7214984298       15.7408667547
  C        13.6092202154        9.9113383106       16.8560605967
  H        13.5138951608       10.7305793705        0.0934829241
  H        13.9671446600        8.9593300367       -0.4235523203
  C        11.9277300560        9.6608196286       -0.3541858338
  H        18.6736364500       17.0493823639        0.2156506141
  C        18.9241337321       15.3897563676       -0.9950222852
  H        11.2685396496       14.1293630578       10.3894003106
  H        10.6862484721       14.5337687373       11.9623786018
  C         9.5939715568       12.9892591086       10.9289940361
  H        18.6204939515       14.5540928861       12.4522573183
  H        17.9661639292       14.8237347980       14.1273320631
  C        19.4903646112       13.3505455710       13.9932435935
  N        13.7877656268        6.8851576156       14.6436594693
  C        13.4781882623        7.0520757989       16.8939970655
  C        13.2754056469        9.2043019928       18.0286688775
  H        13.7711799308       11.0175400145       16.9186722710
  H        11.2857566331        9.9341113429        0.4520265683
  H        11.5981258014        8.7783572632       -0.8906459673
  H        11.8181636360       10.4587619422       -1.0805285804
  S        19.4194502563       13.8181254216       -1.2756848630
  C        18.9809167420       16.3258325682       -2.1635874227
  H         9.9770875603       12.1414761433       10.3774090672
  H         9.1193827943       12.6810160830       11.8760395843
  C         8.5998727577       13.8438752846       10.1356494062
  H        20.1086563704       12.9815236155       13.1868238525
  H        19.1640407068       12.4594220682       14.5030269103
  C        20.4046622633       14.1931965563       14.8803926467
  S        13.8891874816        5.3735459236       15.1916997343
  N        13.5637516138        5.6352755781       16.7535231288
  C        13.1499956479        7.7327629762       18.0850723633
  H        13.0901827657        9.7046333435       18.9891861957
  C        19.4762403545       14.3273007219       -2.9833317338
  N        19.4918122363       15.6609247839       -3.1708890901
  O        18.7578642291       17.5266088122       -2.1627416697
  H         7.9785033493       14.4047024417       10.8387106037
  H         9.1042995670       14.5743049466        9.5101581914
  C         7.6419849602       12.9272844514        9.3564783854
  H        19.8617218140       14.6553089618       15.7282415534
  H        21.0487602494       13.3652872743       15.1919164708
  C        21.1373135767       15.3487335935       14.1818266310
  C        12.9063694637        6.9803510012       19.2977130242
  S        20.0090881189       13.4380028143       -4.3915967250
  C        19.5166540043       16.4264822827       -4.4593263544
  H         8.2141538750       12.4117486651        8.5251348690
  H         7.2266654698       12.1411180300        9.9627421252
  C         6.5267924873       13.8019040840        8.6902462248
  H        20.4164914628       15.8957267745       13.5763881530
  H        21.9838518687       14.9217572264       13.6689713570
  C        21.7123586763       16.2471705742       15.1724961388
  H        13.3786927861        5.9427006037       19.3878832115
  C        12.3774423561        7.2540177663       20.5014369176
  H        20.0937450491       15.8159965551       -5.2234840262
  H        20.1491848234       17.3110974690       -4.2408324936
  C        18.1775550788       16.8835650944       -5.0226288794
  H         6.0457911940       13.3223439918        7.8642762403
  H         6.8372533377       14.8370275854        8.3480027535
  C         5.2949191529       13.8937273501        9.6054900872
  H        21.9027100802       15.7816347790       16.1340346580
  H        22.6739562415       16.6864060577       14.8622801688
  C        20.7384227412       17.4667262836       15.4964853270
  S        11.6874615053        8.8177491783       20.8801618124
  C        12.5058822386        6.2941927970       21.5893349664
  H        18.3041363421       17.9287463180       -5.4647572782
  H        17.2661435827       16.7354650234       -4.4294374685
  H        18.0317543971       16.2900682826       -5.8992888041
  H         5.5333135644       14.4783605116       10.4952675442
  H         4.5184667785       14.4202548540        9.0366257644
  H         5.0435867963       12.8690993346        9.9512737171
  H        20.4397498063       17.7900195845       14.5179399255
  H        19.7638281650       17.3226291030       16.0774250741
  H        21.3423111739       18.3075107511       15.8586220958
  C        11.3680272997        8.0925264209       22.4240653368
  N        11.8389545427        6.8214361307       22.6111880209
  O        12.9702624298        5.1439855095       21.4921966553
  S        10.5758590161        8.9686809056       23.7059379364
  C        11.7684118568        6.0159941894       23.8561243345
  H        11.5608429973        4.9131386471       23.6856312675
  H        10.8461452307        6.2823291442       24.3944804532
  C        12.9656270610        6.1771775568       24.7814272736
  H        12.8125795075        5.5981586099       25.6657452192
  H        13.0486354266        7.2001859672       25.1286913447
  H        13.8820194050        5.8548359587       24.2521708442
