352
 i =    45400, time =    45400.000, E =        25.1588295878
  H        10.3786346160        7.7564356613       33.2349246816
  C        11.0175613754        7.1303179130       32.6364969498
  H        11.9511517033        7.7632183649       32.6922536967
  C        10.3757532632        7.1613751199       31.2282506287
  C        11.3415352154        5.7988685984       33.3775854887
  C        10.9342511172        6.1654552093       30.1482946552
  H         9.3088522779        6.8425754821       31.4449192050
  H        10.4536955256        8.1444582189       30.7811865280
  H        11.7997032377        6.1370521729       34.3056675988
  H        10.4281561898        5.2765109387       33.5395951598
  H        12.0041720871        5.0945725226       32.8043777261
  C         9.8554713244        5.9426396217       29.0422730310
  H        11.1760569996        5.2609807345       30.6249096525
  H        11.8143026410        6.5570914852       29.6867897039
  C        10.4425609069        5.5902957292       27.5973395730
  H         9.1240656948        5.2353009879       29.3692211104
  H         9.3229136639        6.8816131149       28.9281181565
  C         9.4740886885        4.9561253216       26.6123144758
  H        11.3152511779        4.9847176140       27.6845802676
  H        10.7344646733        6.6177669067       27.1109114192
  C         8.1830967282        5.8498557320       26.3573709544
  H         9.9320231660        4.7191802757       25.6977189364
  H         9.1049467904        3.9949454053       27.0438777495
  C         7.0606206345        5.1809592215       25.5192929752
  H         7.8052264257        6.2283737137       27.2497360639
  H         8.5209079937        6.6911360557       25.7411051588
  C         6.7669045337        3.7781431665       26.0878403957
  C         7.4914207931        4.4850728728       24.2352492501
  C         5.7663577541        6.0124487099       25.4772065459
  C         7.1272848003        2.6540941254       25.3571265470
  C         6.0457333191        3.4214229002       27.2724650119
  C         7.5492931263        3.1184786709       24.1203846820
  C         7.9090166324        5.2720307582       23.1461348851
  H         5.9756844002        6.9390469272       25.0247956258
  H         5.4190090551        6.3378410847       26.4273310437
  C         4.5692974931        5.4190036074       24.6726925356
  S         6.6835105893        1.1297128550       26.1658361140
  C         6.0782927070        2.0253910378       27.4921827773
  H         5.5761690202        4.2087333606       27.9110027751
  C         7.9823474618        2.6147747680       22.9744738553
  H         7.8546577844        6.3090550071       23.1420184560
  C         8.3728935895        4.7043494650       21.9612281338
  H         4.9778234988        5.4739027343       23.6089399538
  H         4.2069677843        4.4310160691       24.9369984877
  C         3.3214101901        6.2971930890       24.7069380917
  C         5.7662583053        1.4495113335       28.7842233862
  C         8.3318917134        3.3547250150       21.8048357148
  H         8.1494119111        1.5618722532       22.9060343437
  C         8.8907855030        5.0796292861       20.7507039621
  H         2.6355138728        5.9178359006       24.0362084060
  H         3.5615618878        7.3073309457       24.4178073175
  C         2.6587303305        6.4889187532       26.0719773149
  C         5.8250949658        0.0879838565       29.1311121691
  C         5.2607989686        2.2961389094       29.8901181333
  C         8.8967066646        2.6336937069       20.6052271576
  C         9.1393526068        3.9638298370       19.9450604715
  S         9.2426456808        6.5515665261       19.9437081155
  H         1.9224164952        7.2525590563       25.8506508254
  H         3.2641751565        7.0828239843       26.7057411143
  C         2.1245570718        5.1766765456       26.6164513532
  N         6.2208454822       -0.9180136793       28.2628785786
  C         5.6654306122       -0.3882081475       30.4168530815
  C         4.9950579559        1.7901462876       31.1850071380
  H         4.9895650289        3.3483064566       29.7734431286
  C         7.8586601685        1.6510005674       19.9947284222
  C        10.2634875973        1.9588125043       20.8460301395
  C         9.5486873856        4.2925258795       18.6766936440
  C         9.5734884520        5.6505069196       18.4984750504
  H         1.3868501141        4.7432350724       25.9844145288
  H         2.8444276893        4.3767983176       26.8786200726
  C         1.4027340316        5.5193086445       27.8831820408
  S         6.1636723013       -2.3917258766       28.9781738593
  N         5.8571392889       -1.7759011981       30.4548537013
  C         5.2805086037        0.3813094196       31.5192908350
  H         4.6382904844        2.4786028974       31.9489333266
  H         7.5067570582        0.9995703061       20.7376562506
  H         8.2697169554        1.0488976013       19.1797081898
  C         6.6784274238        2.4092374003       19.3887855675
  H        10.6833672742        1.6484599440       19.9295004182
  H        10.0747518937        1.1162220684       21.4076684277
  C        11.2980604305        2.8063207350       21.6085286817
  H         9.7718612235        3.4944262143       18.0336997884
  C         9.8475481882        6.4699769270       17.2696689638
  H         0.7021190339        4.7087853409       28.0975902758
  H         0.7926884885        6.4669417971       27.8291756548
  C         2.4001298300        5.6136989954       28.9788607800
  C         5.1152355776       -0.2728670581       32.7911255640
  H         6.9269071950        2.9594607191       18.4935527965
  H         6.3399289300        3.1836876023       20.0117500342
  C         5.5168354698        1.5009962661       18.9527792711
  H        10.9890370146        2.9765529832       22.6668249465
  H        11.3828239550        3.7803885525       21.2566525959
  C        12.6271765059        2.1008714204       21.5142760543
  C         9.9125957574        7.8847479396       17.0871209574
  C         9.9903355780        5.7353776428       15.9780032462
  H         2.8233510061        4.6036914134       29.0422077525
  H         3.3039760319        6.1388102103       28.6638662155
  C         1.8808628032        6.0355030989       30.3219540153
  H         5.3557549811       -1.3208799260       32.8993226993
  C         4.7193336150        0.1928755187       34.0520860475
  H         5.1288533874        1.0147669894       19.8560668489
  H         5.8822320704        0.7585750577       18.3233353295
  C         4.3181748207        2.2135713838       18.3374894304
  H        12.7142577109        1.0968301424       21.9566479404
  H        12.7476026715        1.8938449748       20.4746644893
  C        13.6827896848        3.0730236317       21.9975042479
  N         9.6947244354        8.8069214894       18.1224288311
  C        10.2693187243        8.4945684766       15.9130309996
  C        10.4790391915        6.3415528242       14.8420874435
  H         9.7213667503        4.6600640637       15.9267265338
  H         1.7462603693        5.1424387822       30.8673266282
  H         2.5435830775        6.6650426627       30.8457683381
  H         0.9470767967        6.5686919056       30.3040916832
  S         4.1897396331        1.8242172373       34.4216655988
  C         4.6673327838       -0.7004290801       35.2374575040
  H         4.2619696828        3.2088527374       18.7898871685
  H         4.5751734568        2.3866511404       17.3234876970
  C         2.9513583760        1.6028846328       18.5227390253
  H        12.9952339649        3.8499544563       22.3743936130
  H        14.3121665757        3.4307621060       21.1805855619
  C        14.6014693671        2.7279461261       23.1781957031
  S         9.8912992033       10.3032719210       17.4823600122
  N        10.3028249472        9.9116697223       15.9817696859
  C        10.6132716558        7.7888910463       14.7456335050
  H        10.4899084026        5.7478337068       13.9232543921
  C         4.2033207025        1.3386777982       36.0801571462
  N         4.3301780387       -0.0009275886       36.3202825907
  O         4.8198449962       -1.9220104696       35.1750180801
  H         2.3078238814        2.4806397342       18.6981371479
  H         2.6944391829        1.0786451622       19.4733287110
  C         2.7012876382        0.7765234304       17.3010417981
  H        15.1303713866        3.6482453257       23.3509964582
  H        13.9783981938        2.6941125451       24.1434494232
  C        15.6247821824        1.6493392356       22.9955092588
  C        10.9548627082        8.5421944188       13.5833222430
  S         3.5033182435        2.2714330854       37.4115574538
  C         4.2011586532       -0.6481907176       37.6503199405
  H         2.3618045984        1.4266379204       16.4885075146
  H         3.6246730010        0.3046949970       16.9109590338
  C         1.6129294361       -0.3108843013       17.4268119942
  H        15.6211213288        1.1765474110       21.9385449998
  H        15.4302222258        0.8720345500       23.7760241044
  C        17.1229018174        2.0303999410       23.2292041055
  H        10.7287681095        9.6066723309       13.7100936185
  C        11.3701615988        8.1546559786       12.3506213101
  H         3.5968081773       -0.0792693153       38.3045834049
  H         3.6242182537       -1.4941218726       37.4589112479
  C         5.5581969725       -0.8912483620       38.3785021431
  H         1.1404065132       -0.3862647975       16.4575489523
  H         0.7667808305       -0.0527827154       18.0831589536
  C         2.1585940731       -1.6360400111       17.8808421292
  H        17.2563456371        2.5766424983       24.1664879668
  H        17.7362015966        1.1567279252       23.5171630673
  C        17.6811752743        2.9253706553       22.1358944011
  S        11.8198873183        6.5118477231       11.9102345425
  C        11.6079598514        9.1561520090       11.3000019012
  H         5.3592009418       -1.3533944945       39.3430746276
  H         6.3865900814       -1.4331710693       37.8598800459
  H         5.9558442077        0.0381587859       38.5652559539
  H         2.8317823658       -1.5182058883       18.7223808572
  H         2.8531094232       -1.9827738566       17.1840084152
  H         1.3332053593       -2.3467470536       18.0772247575
  H        17.7351416204        2.2919973669       21.2441936738
  H        18.7078652191        3.2253227495       22.3342870721
  H        17.1366383712        3.8217960815       21.9289984124
  C        12.2480317486        7.2409941850       10.2921610486
  N        12.1307898080        8.5750576528       10.2337912465
  O        11.4155410385       10.3774868537       11.5365548789
  S        12.9221117216        6.4057116416        8.8280012451
  C        12.3802721534        9.4396676444        9.0289625104
  H        12.8296341239       10.3919214695        9.3193851072
  H        13.0618457530        9.0155612929        8.2873262483
  C        11.0030271303        9.7953896163        8.4155953957
  H        10.2961522075        9.2617396375        8.9288607038
  H        10.8293695759       10.8225344340        8.5314085737
  H        10.9544010925        9.4678103187        7.4608300468
  H        20.5082631903       11.6184387486        3.7225114808
  C        21.0462545881       10.6663532509        3.6847793842
  H        20.3399817426        9.8075519029        3.8457417267
  C        22.0862682132       10.5279747338        4.7462194677
  C        21.5188839969       10.4779501166        2.2857040901
  C        21.3445034141       10.7226398041        6.0663670225
  H        22.7329752996        9.6561631283        4.6611706304
  H        22.7420272496       11.3633194915        4.7491059057
  H        21.6620951151        9.4488146403        2.0295976442
  H        22.5441591726       10.8156496587        2.1113066352
  H        20.9845722799       11.0273032406        1.5296364349
  C        21.0395653098        9.4402115022        6.8422259059
  H        21.7568621916       11.6408374383        6.5696690345
  H        20.4048149124       11.2566150947        5.8661871756
  C        20.2023962680        9.5662967799        8.2177723154
  H        22.0106871246        8.9093112532        7.0369285348
  H        20.5293204678        8.8486061388        6.0799990552
  C        18.8770105673       10.4344151450        8.1558500298
  H        20.8554413260       10.1339289498        8.9211476502
  H        19.9883464589        8.6246376084        8.6864598058
  C        17.7129617225        9.6675141476        7.4676762659
  H        18.6861229339       10.8005033959        9.1856074580
  H        19.0803065397       11.3103088195        7.5732282831
  C        16.5194224004       10.6695656203        7.0858704446
  H        17.4583969220        8.8387363145        8.1742237109
  H        18.0262407842        9.1287958661        6.5808390072
  C        16.9321067019       12.0002681563        6.3890532677
  C        16.1154235556       11.4696894785        8.3470793673
  C        15.3425899517        9.9973863855        6.3398102073
  C        16.6507340230       13.1411044784        7.1273888425
  C        17.4045076684       12.2954552484        5.0608966483
  C        16.1724246544       12.8187157050        8.3799256577
  C        15.7463798288       10.8160884048        9.5252385984
  H        15.6096437861        9.6905143418        5.3325540604
  H        15.1607242309        9.0331286303        6.8827441936
  C        14.1547615034       10.9378870583        6.0530843071
  S        17.0409959261       14.6130712917        6.3010597841
  C        17.4836581529       13.6686695384        4.8323139936
  H        17.5926667047       11.5197604009        4.3107720265
  C        15.8795675729       13.4871446011        9.4870694535
  H        15.7167166489        9.7387354322        9.4432651945
  C        15.3333516648       11.5107419302       10.6694733376
  H        14.3944552971       11.8418859259        5.5394593994
  H        13.7558929827       11.1538308186        7.0181593084
  C        13.1340395205       10.3279433213        5.2361930892
  C        17.9170911374       14.3488141985        3.5307335657
  C        15.4509364878       12.8724331963       10.6571637368
  H        15.9397420437       14.5628298168        9.6242710589
  C        14.9654505524       11.1998672552       11.9358969447
  H        12.2756760924       10.9564498177        5.4018831858
  H        12.7964392114        9.3014370590        5.5004296777
  C        13.4218738937       10.3887256672        3.7585518161
  C        17.8570254646       15.7499803264        3.2502774052
  C        18.3598037315       13.4929638197        2.4231143778
  C        15.1309497373       13.5868206280       11.9753807451
  C        14.9659238154       12.2882004307       12.7629882213
  S        14.7288681553        9.7059333849       12.8099883997
  H        14.2988950820        9.8085911367        3.5711032353
  H        13.5437772644       11.4618607268        3.6171048134
  C        12.3041307948        9.8423891372        2.8943070480
  N        17.5075884223       16.7438827549        4.1886571282
  C        18.1875523474       16.2367642235        2.0178220553
  C        18.6115980113       14.0277759878        1.1935986473
  H        18.4020588360       12.3888518408        2.5521538433
  C        13.7876546343       14.3706406368       11.8529073046
  C        16.3329844863       14.5449476713       12.4635892195
  C        14.6530159848       11.9535038395       14.0718017365
  C        14.5057032974       10.5912415695       14.2065424026
  H        11.7554409035        9.0886423001        3.3638809470
  H        11.5756787377       10.6871190657        2.7085138847
  C        12.7737318265        9.1745124919        1.5688943322
  S        17.5249827732       18.1587898244        3.4270655758
  N        18.0413114641       17.6241667330        2.0084463189
  C        18.4933734872       15.4398004280        0.8815036923
  H        18.9734789895       13.4221297709        0.3602242754
  H        13.9449777974       15.2317808890       11.1718980392
  H        13.7202116611       14.8537533649       12.8273605521
  C        12.5960016837       13.4742821058       11.4272271025
  H        16.3943678872       15.3389940095       11.6834937991
  H        16.0214367547       15.1067752266       13.3457691157
  C        17.6997421579       13.9707826164       12.5767306374
  H        14.6362190866       12.6701433379       14.8503065326
  C        14.0281117252        9.8631427211       15.4966313661
  H        11.9121147997        8.6430105122        1.1920886208
  H        13.5991533431        8.3607122205        1.7719361560
  C        13.2255286536       10.1207806624        0.4516183746
  C        18.7694500763       16.1479195217       -0.3081022461
  H        12.9098821203       12.6375324065       10.7747723866
  H        12.3956416447       12.9413145718       12.3389680510
  C        11.4057968910       14.2536874703       10.8207293917
  H        18.3543135495       14.7200906467       12.1816252332
  H        17.9770779645       13.1998462669       11.8443941156
  C        17.9209573556       13.6685336146       14.1167997776
  C        13.8484063249        8.4880729793       15.7170776194
  C        13.7187874839       10.7636513842       16.5840381041
  H        13.5722011930       10.9914027270        1.0058409717
  H        14.0094736024        9.5740836579       -0.0840011018
  C        12.0243955056       10.6311541185       -0.3442949007
  H        18.6635174474       17.2228295269       -0.2963757094
  C        18.8657687596       15.6521202250       -1.6011924724
  H        11.9045938817       14.8546611067       10.0718178557
  H        10.8297694780       14.8951224036       11.5697167628
  C        10.3813002460       13.3319247035       10.1507031855
  H        17.6553950131       14.4216722500       14.8638918900
  H        17.2391993601       12.9298913851       14.3583138440
  C        19.3140936738       13.0971153402       14.3827221893
  N        13.9587252997        7.5848735392       14.7252378248
  C        13.4862442591        7.9824648118       16.9634961998
  C        13.3592761483       10.2671616497       17.8358528442
  H        13.7743614584       11.8358697173       16.4721663072
  H        11.1470786148       10.7136104328        0.2523831806
  H        11.8112905911       10.0092451321       -1.2102796953
  H        12.2473579035       11.6428934797       -0.7527070785
  S        19.0448390679       14.0146504871       -2.0954990937
  C        19.0578599997       16.6948529735       -2.6948060873
  H        10.8188552322       13.1317567282        9.1490684403
  H        10.3475896996       12.3845299398       10.7166585141
  C         9.0192448654       14.0168409190       10.0657407054
  H        19.5134684372       12.2274678673       13.8824413543
  H        19.1590311397       12.8410100051       15.4526175502
  C        20.5411705960       14.0267595977       14.1698910819
  S        13.8237973154        6.1694241943       15.4331784091
  N        13.4489785571        6.5879232616       16.9565253470
  C        13.1935971866        8.7921404847       18.0775243483
  H        13.1539239636       10.9919067144       18.6169604846
  C        19.1267038145       14.6710086133       -3.7683229635
  N        19.1839575706       16.0327864263       -3.8323852035
  O        19.0712721841       17.9009244136       -2.5337520821
  H         8.6120374507       14.1391539797       11.0259395236
  H         9.3538866046       14.9152245665        9.5454810118
  C         8.0629900667       13.2095660218        9.1952709940
  H        21.4867630922       13.6030187546       14.5583489213
  H        20.8683239578       13.9994108920       13.1534593163
  C        20.4332730342       15.4894405833       14.6625037460
  C        12.8476696665        8.1319545044       19.3026939955
  S        19.6341385448       13.7671671305       -5.1983673316
  C        19.0999034317       16.8209512807       -5.0869496852
  H         8.4824469466       13.0262979324        8.1801936527
  H         7.7551599070       12.2522714196        9.7177589833
  C         6.7293744313       13.8592524049        8.9763715638
  H        20.7470545137       15.5530148973       15.7319943285
  H        19.4174771762       15.8636824935       14.6047413939
  C        21.4444894557       16.4554048669       13.9588733771
  H        12.8863222541        7.0479769675       19.3420256032
  C        12.2307243603        8.5400985566       20.4807400427
  H        19.6790159894       16.3304803744       -5.8663728127
  H        19.5779473503       17.8633270513       -4.9934998794
  C        17.6904856985       17.1453635095       -5.5226908592
  H         6.1280705017       13.3714166780        8.1503317497
  H         6.9405741991       14.9680680249        8.8377115919
  C         5.9909044821       13.7671197341       10.2883797174
  H        22.2803827418       15.9908254781       13.4279760099
  H        20.9821665041       17.0189336508       13.1035333015
  C        21.8917959230       17.4859935166       14.9092962622
  S        11.8919958922       10.2085850686       20.7263523047
  C        12.0619448866        7.5502695921       21.6026978160
  H        17.2182178445       16.1960809412       -5.7728230947
  H        17.7672396060       17.8743192265       -6.3552561012
  H        17.1515749795       17.6230086883       -4.7321549022
  H         5.9170050101       12.7468750714       10.6734916579
  H         6.4207653427       14.3585628592       11.0990502054
  H         5.0401787274       14.2435751239       10.2730139154
  H        21.0127820280       18.1259203300       14.9761640501
  H        22.1564217581       17.0724768534       15.8808967631
  H        22.8350499047       18.0196553468       14.5769455139
  C        11.3467071782        9.5878742149       22.3064241251
  N        11.3724346574        8.2302800303       22.4984930358
  O        12.2201303000        6.3746608157       21.4572250393
  S        10.5495503513       10.6301074952       23.5050219088
  C        10.9171340443        7.5735355148       23.6844216778
  H        10.4448267654        6.6932559038       23.2995125657
  H        10.2536558163        8.0773572130       24.2672621738
  C        12.1190972520        7.4227229515       24.5432834972
  H        13.1121110348        7.6454052902       24.1703103465
  H        12.2026740702        6.4670293176       24.9180755240
  H        11.9630166204        8.0076077708       25.4973841752
