352
 i =    38600, time =    38600.000, E =        25.0119928295
  H        12.1423079788        6.3429208619       32.3460049827
  C        11.8488959217        5.3371295637       32.4797146184
  H        12.5729784905        4.7135232788       32.1549289778
  C        10.6838950929        5.1198352751       31.4895194327
  C        11.5102387380        4.9905578795       33.9168992916
  C        11.0402475270        5.5409347528       29.9821855922
  H        10.4457234678        4.0167382436       31.3924054907
  H         9.7898816356        5.6415833653       31.7508756521
  H        10.4614802568        4.8088987358       33.9743481524
  H        12.0530273597        4.1313991717       34.2761442689
  H        11.6681529313        5.8030050575       34.5609822289
  C         9.9077320806        5.3192157812       28.9459972340
  H        12.0153364744        5.0489389983       29.6868237713
  H        11.2736851426        6.6217710818       30.1013843902
  C        10.4718306478        5.7227193550       27.5189416101
  H         9.4644164830        4.3131557832       28.9923258641
  H         9.0675045516        5.9243558686       29.1679155958
  C         9.7385802889        5.0431104072       26.4119285051
  H        11.5258911501        5.5558068599       27.3933386403
  H        10.4514037138        6.7372340152       27.3915201369
  C         8.4975623653        5.7717823907       25.9746762041
  H        10.4240451765        4.9043958112       25.5369194531
  H         9.6207728921        3.9650795262       26.7441506973
  C         7.3507953099        4.9818922811       25.2734291739
  H         8.0028284125        6.1824863306       26.8965843095
  H         8.7679436354        6.5569752062       25.3629014773
  C         7.0771967131        3.6670194925       25.9048862190
  C         7.7504097397        4.3234977478       23.9503665866
  C         6.0540287750        5.8418315709       25.0534240722
  C         7.2311082641        2.5880688854       25.0391865619
  C         6.6797109316        3.2350517613       27.1167738367
  C         7.7525351365        3.0178293043       23.8863712962
  C         8.0799916560        5.0116302206       22.7802434197
  H         6.3162218156        6.7820415567       24.5994986274
  H         5.7597602749        6.1356668753       26.0350381811
  C         4.7919990828        5.1704774141       24.4992699030
  S         6.6505915543        1.1033872558       25.6877042263
  C         6.3916434673        1.8865092717       27.1808500919
  H         6.5759896533        3.9580009595       27.9205413172
  C         8.0701884875        2.3626742026       22.7133552741
  H         7.9367338669        6.0466898597       22.7856183434
  C         8.4826381044        4.3753036863       21.6561440689
  H         5.0834607184        4.7558416966       23.5424183466
  H         4.5571326448        4.2498897433       25.0201957891
  C         3.6413345241        6.1919773668       24.3733244889
  C         6.0713711781        1.2746334500       28.4966647282
  C         8.5140245611        3.0230654780       21.5717732752
  H         7.9533746175        1.3178894423       22.5646480626
  C         8.9244430253        4.7886760870       20.4153056077
  H         2.9335689279        5.7510395628       23.5938465955
  H         3.8578149395        7.1543652266       24.0169759343
  C         2.8558167837        6.3831827169       25.6920009932
  C         6.1052739367       -0.1114975549       28.7655083241
  C         5.6598682900        2.1831091046       29.6671857450
  C         8.9907581725        2.3175653729       20.3157272929
  C         9.2491369051        3.6956413080       19.6000949743
  S         9.2781933684        6.2659556931       19.6823835012
  H         2.1523971704        7.1895904973       25.5791765461
  H         3.6550007789        6.6455865917       26.4041173530
  C         2.1695886639        5.1350425612       26.0956525586
  N         6.4321827245       -1.0893105051       27.8508833642
  C         5.7733675367       -0.6062680159       29.9816572087
  C         5.3583292659        1.5804589865       30.9222590100
  H         5.5967032630        3.2213533400       29.5781987555
  C         7.8326586964        1.5860100519       19.6321639693
  C        10.2613108158        1.5093474226       20.4061533516
  C         9.7058450013        4.1176593015       18.3580900121
  C         9.8108080383        5.4776751555       18.2710611287
  H         1.2199097512        5.0885775501       25.4946982192
  H         2.6840773236        4.2325826748       25.9546258868
  C         1.6729635048        5.0878183571       27.5531806798
  S         6.1689084794       -2.5486555272       28.5463796924
  N         5.8132450533       -1.9736314839       30.0193238965
  C         5.3494990416        0.1040741059       31.1213268310
  H         5.2386434026        2.2570860213       31.7285620170
  H         7.3049295224        1.0557187069       20.3229152437
  H         8.1603725059        0.9889157256       18.8660320562
  C         6.7809628172        2.4592793796       19.0060995667
  H        10.4639385546        1.1581577007       19.3740164671
  H        10.1663848543        0.6438704199       21.0224368621
  C        11.5388002336        2.3080014179       20.8540383304
  H         9.9258389259        3.2990216280       17.7273432946
  C        10.0490994760        6.2960336127       17.0252528411
  H         0.8806091195        4.3444444245       27.6687551605
  H         1.2116906102        6.0416057202       27.7586708546
  C         2.6821802566        4.9254949718       28.6274680709
  C         5.0102407181       -0.5952281482       32.3585673694
  H         7.1678919190        2.7908907562       17.9894142076
  H         6.4749544286        3.3860279618       19.4682425572
  C         5.5487685443        1.5304983084       18.6127469838
  H        11.2425696513        3.1426911753       21.4934932986
  H        11.9802415675        2.9212898409       20.0413802231
  C        12.5852770040        1.4038837964       21.5164094281
  C        10.2241838673        7.6699198756       16.9734533789
  C        10.1715962534        5.5893506589       15.6459995806
  H         3.0225810210        3.8578058679       28.5763778694
  H         3.5268620628        5.6313356796       28.6358829568
  C         2.1388571622        5.0301581117       30.0425700503
  H         4.7634655554       -1.6336072656       32.1927865545
  C         4.8251054687       -0.1884239534       33.6086582349
  H         4.9958959323        1.1868985489       19.5359411036
  H         5.8655978452        0.6631114426       18.0436731884
  C         4.5121534613        2.2700661001       17.7980034027
  H        12.3325578074        1.1184707552       22.5208396769
  H        12.7695091531        0.4625214240       21.1267870708
  C        13.9306683204        2.0686163340       21.4846084930
  N        10.0962032703        8.5552718637       18.0556351588
  C        10.4739443860        8.4049695653       15.7791714024
  C        10.3928635279        6.3396230444       14.4839231647
  H        10.2679604142        4.5279500177       15.6588447300
  H         1.6084107966        5.9342328916       30.1594628236
  H         1.4206437592        4.2683842760       30.1759852659
  H         2.8661868449        4.7790205727       30.7919415135
  S         4.5731856918        1.4158130866       34.0855325707
  C         4.5425121831       -1.2020604365       34.6147361525
  H         4.7776933761        3.3299059537       18.0016815801
  H         4.6290130575        2.1759227552       16.7583874004
  C         3.1332323011        2.0555879556       18.4472629165
  H        14.2711293715        2.6354648677       20.5725127034
  H        14.7302990647        1.3139197610       21.5014176275
  C        14.1998055741        3.0492330494       22.6771155643
  S        10.2712281981       10.0725863969       17.5524508073
  N        10.5793285658        9.8071579407       15.9879589830
  C        10.6466413752        7.7863249097       14.5018887471
  H        10.4708867361        5.8447495197       13.5248458777
  C         4.1896171934        0.7648661570       35.7247536539
  N         4.1317997942       -0.5773923417       35.7858271277
  O         4.6914798970       -2.4295519846       34.4807915107
  H         2.4781393208        2.7897837732       17.9354874287
  H         3.0932002868        2.4008899924       19.4594936460
  C         2.7000369403        0.6326613717       18.2592709890
  H        14.9153010375        3.8006933639       22.4490635179
  H        13.1525554429        3.4138544118       22.8454960012
  C        14.6496567739        2.3445796182       23.9867428100
  C        10.9177563837        8.6190912096       13.4087197178
  S         3.9719756572        1.7687095828       37.2315823290
  C         4.2171056141       -1.3165672848       37.0055686630
  H         3.4092651881       -0.0116592503       18.7663591559
  H         1.7124164450        0.5681076098       18.8175709941
  C         2.5527691315        0.0703657303       16.8933308284
  H        14.1441388781        1.3849083665       24.1119187447
  H        14.4416225646        2.8519812305       24.9215295860
  C        16.1215831440        2.2066010453       24.1259426533
  H        10.6632509488        9.6330818213       13.5198459600
  C        11.4872127070        8.2938445826       12.1927219288
  H         3.8325473317       -0.7816575690       37.8434969525
  H         3.6479150566       -2.2615688720       36.8833801447
  C         5.6655731282       -1.5799702268       37.4968885742
  H         3.4129960902        0.1396674978       16.3469615416
  H         1.8129823071        0.6534157070       16.3602119553
  C         2.0513839444       -1.3963848400       16.8961522888
  H        16.5157120291        3.0460220531       24.7083806019
  H        16.3704013359        1.4257179194       24.8174227342
  C        17.0347875387        1.8891150656       22.9499911285
  S        11.9873697162        6.7863850202       11.7562908721
  C        11.4425152273        9.3663000786       11.1713620213
  H         5.8938668610       -2.6297541070       37.7639181256
  H         6.3865502089       -1.2886549397       36.6654795168
  H         5.9211220696       -1.0303531335       38.4357309756
  H         1.8351996092       -1.7286005061       17.9375721751
  H         2.5887327984       -2.1105127396       16.2670614532
  H         1.0008791805       -1.3982467699       16.5597993230
  H        18.0992084130        1.9566307243       23.3325963984
  H        16.9166004215        2.6314021437       22.2154094885
  H        16.7395820276        0.8464400768       22.6231695743
  C        12.3498635325        7.5240408892       10.1814901028
  N        11.9533231736        8.7883624857       10.0572530084
  O        11.0642605609       10.5178106325       11.3443590489
  S        13.1729137478        6.7919252183        8.8525435757
  C        12.1478003299        9.4931988979        8.7943358576
  H        12.1873699343       10.5347835498        8.9805542387
  H        13.0675632817        9.3950384280        8.2084797648
  C        11.0070095750        9.2842565223        7.8542458584
  H        10.1913218985        9.9864640151        8.0198522123
  H        11.2716995847        9.2858990958        6.7792950304
  H        10.7222803289        8.2867413988        8.0466067608
  H        21.1152545312       11.7348265627        3.7636399200
  C        21.5246469075       10.7443796820        3.5048038585
  H        20.7132932368       10.0223470804        3.5846490978
  C        22.5450943981       10.4058108825        4.6226430846
  C        21.9876577424       10.6842666234        2.0120133787
  C        22.0032956167       10.5126045747        6.0606537073
  H        22.7484265269        9.3738890876        4.5744290036
  H        23.4559835468       10.8845907188        4.5270759461
  H        22.6516788077       11.3796597089        1.5744451151
  H        21.1299226162       10.8868128941        1.5069290406
  H        22.2753671519        9.6221361242        1.7205865306
  C        21.0204842769        9.3702687267        6.3935298269
  H        22.8651997346       10.5105841441        6.6932906368
  H        21.4789468002       11.5070723492        6.2225455412
  C        20.5399673170        9.5624531626        7.8330700460
  H        21.6072464453        8.4095115338        6.4258662509
  H        20.1903373177        9.4261334229        5.6700253793
  C        19.2171036887       10.4378432250        7.9157733792
  H        21.2781831650       10.1234910260        8.2939085174
  H        20.2059868737        8.6877886686        8.3045367529
  C        17.8999314489        9.8008161902        7.3813854262
  H        18.9772512054       10.7788959489        9.0119508351
  H        19.4408567033       11.3636361914        7.3963891247
  C        16.7775734260       10.7764784384        7.1554035634
  H        17.5771451607        9.0733414852        8.1401035860
  H        18.1045811435        9.2290055308        6.5598145470
  C        17.1983727151       12.0880188782        6.3976522833
  C        16.3859557361       11.5843549132        8.2918559217
  C        15.4401227470       10.0730672708        6.5770881687
  C        16.9246415818       13.2274883309        7.1033664550
  C        17.7002120250       12.3323513097        5.1303400042
  C        16.4287927786       12.9317370978        8.3610841908
  C        15.9431051935       10.9118311922        9.4137408058
  H        15.7823361374        9.4446247709        5.7259646132
  H        15.0543304102        9.2648311146        7.2483753341
  C        14.3163668421       11.0757667639        6.1965974181
  S        17.2100084958       14.6533315010        6.2352629531
  C        17.7470154509       13.6815602636        4.9462011161
  H        17.7492791949       11.5187412527        4.3842347120
  C        15.8544145569       13.5494312785        9.4345721050
  H        15.8747447948        9.8492840779        9.3202398192
  C        15.6096290840       11.5923191611       10.5402054973
  H        14.7826176571       12.0312814052        5.8438565097
  H        13.8809135353       11.4595863165        7.1321970576
  C        13.2320592628       10.4965899104        5.3367659229
  C        18.2237032243       14.3810754699        3.7115428213
  C        15.5581058294       12.9161280195       10.6309817210
  H        15.9409237698       14.6077909082        9.4440016698
  C        15.1553271339       11.2300686186       11.8067134361
  H        12.2565074981       11.0619721000        5.5347080999
  H        13.0912965876        9.4513157818        5.6326516921
  C        13.6673054009       10.4694072518        3.8724396962
  C        17.9492874345       15.7148991747        3.3751054208
  C        18.9379143096       13.6180932069        2.6629476924
  C        15.0703172776       13.6743408200       11.8333964293
  C        14.8996825616       12.3503268254       12.5789047257
  S        14.7773842837        9.6248463608       12.5377987734
  H        14.3966573077        9.6316880668        3.5295434822
  H        14.1651686386       11.3798098440        3.6333858855
  C        12.5529716945       10.3474850170        2.8692465580
  N        17.4285856646       16.6945086249        4.1913056813
  C        18.3056017053       16.2237148656        2.2150815862
  C        19.1870702844       14.1529954812        1.4122851909
  H        19.2470166572       12.5960997372        2.7990774626
  C        13.7524758103       14.3726468045       11.5709537263
  C        16.1889453091       14.5875657005       12.4520569120
  C        14.4194723883       11.8872115242       13.8078244027
  C        14.4061040502       10.5457897572       13.9611229703
  H        11.9087844918        9.5272004653        3.2392641733
  H        11.9586966652       11.3159970357        2.7782055331
  C        13.0986362852       10.0297569254        1.5119249786
  S        17.3714954464       18.1228659258        3.4549033834
  N        18.0448396366       17.5974047322        2.0771879303
  C        18.7836781767       15.5712804019        1.0606487241
  H        19.5619770119       13.4823220891        0.6032426247
  H        13.7776713684       15.2964339289       10.9959072420
  H        13.4638784565       14.7782742457       12.5497607557
  C        12.5426619328       13.4056175512       11.1737315765
  H        16.3035458394       15.4707837499       11.7584923335
  H        15.6445339651       14.9302022485       13.3685886330
  C        17.5793687508       13.9759088794       12.7708566384
  H        14.0558008848       12.6437730675       14.5693271261
  C        14.0503920819        9.8095489691       15.2223304263
  H        13.8289142907        9.2021526895        1.5171119937
  H        13.5938031974       10.8789378064        0.9909245220
  C        12.0257132780        9.6490944626        0.5034491771
  C        18.9491066411       16.2435751247       -0.2083139853
  H        12.7350206574       12.8028841021       10.2616894309
  H        12.2458589256       12.6940947828       11.9560328260
  C        11.2890107210       14.2964364818       10.9445999829
  H        18.2840367489       14.3062162931       12.0229076108
  H        17.6520004074       12.8574489109       12.7068733998
  C        18.0709772153       14.4124914516       14.1717625003
  C        13.9975117672        8.4118254043       15.4054756799
  C        13.8677530612       10.5765944846       16.4491839200
  H        11.9821621025        8.5773997458        0.3795873631
  H        11.1554452093       10.1816130208        0.8653541837
  C        12.4993901025       10.2299145224       -0.8775046257
  H        18.7565048879       17.2976954288       -0.1671770783
  C        19.2081749580       15.8083543562       -1.4962295045
  H        11.5700654247       15.0897633457       10.2642245958
  H        10.9086696054       14.7831404996       11.7989150546
  C        10.1048954882       13.4687376472       10.3804968046
  H        18.0771765229       15.5085086209       14.2655847117
  H        17.3438734233       14.0057335040       14.8684298792
  C        19.5045804853       13.8609469141       14.4975176696
  N        14.1751430811        7.4686013478       14.3670442424
  C        13.6803583059        7.7615839305       16.5633360783
  C        13.5753621612        9.9334880761       17.6762657061
  H        13.8283416822       11.6177616972       16.3900726103
  H        12.6927887528       11.3098461831       -0.9361823251
  H        11.6721802710       10.1107511037       -1.5831644716
  H        13.3023291039        9.5932669365       -1.2921031704
  S        19.5521067054       14.2559991526       -2.0018084741
  C        19.2970057814       16.8314153913       -2.4833120095
  H        10.5187053143       12.8229107004        9.6861863188
  H         9.7110096311       12.8222659215       11.1360700854
  C         9.0150068365       14.2135073995        9.7539531325
  H        19.6451772019       12.8681152732       14.0308585884
  H        19.5548750693       13.6625217763       15.5732545478
  C        20.5927082300       14.7954155384       14.0465336969
  S        14.1230205137        5.9733774447       14.9309643056
  N        13.9770212370        6.3944678015       16.4720230852
  C        13.3502890498        8.4478844737       17.7053133695
  H        13.4508607216       10.3867891047       18.6496310803
  C        19.7435291765       14.9653277164       -3.5925246376
  N        19.6114564290       16.3097999926       -3.6731626077
  O        19.2740082260       17.9992469154       -2.3037323502
  H         8.3028958304       14.4167666395       10.5299705889
  H         9.3383394839       15.1219046736        9.2538437660
  C         8.1513662423       13.3214969152        8.8056876163
  H        21.2075415690       14.4270621509       13.2436584666
  H        20.0605977512       15.5749616153       13.5103809243
  C        21.5118106623       15.4396977898       15.0582506290
  C        13.0420715347        7.6742889663       18.8676135549
  S        20.0212418886       13.9710967764       -5.0683084897
  C        19.6340735916       17.1197380599       -4.8455495897
  H         8.6693030855       13.1399776942        7.8943631962
  H         8.0357136745       12.3668601911        9.2615302519
  C         6.8298762655       13.9379939901        8.3871568740
  H        22.2525906924       16.0260842623       14.4727872066
  H        21.9282489285       14.5677169890       15.6091945520
  C        20.7646814864       16.3386744574       16.0709956616
  H        13.4753371257        6.7143135111       18.7950820792
  C        12.5232217909        7.9137445341       20.1422768797
  H        20.3699923079       16.7215286042       -5.5584791800
  H        20.0230284093       18.0959068977       -4.7031657253
  C        18.1368506111       17.1929954475       -5.3779710332
  H         6.3544465210       13.6125489936        7.4494716325
  H         6.9865090283       15.0215785429        8.3702222047
  C         5.8297059899       13.6942595713        9.4674797076
  H        19.8845938735       15.7744362461       16.3849598525
  H        21.4119093616       16.3683036643       16.9625615365
  C        20.4953799075       17.7442406092       15.6031943015
  S        11.9545939439        9.4454345751       20.6609043133
  C        12.3853064903        6.7443085408       21.1085405916
  H        17.5375156771       16.4926203909       -4.8027038359
  H        18.1247686447       17.0212473288       -6.4364792842
  H        17.7420617075       18.2025244061       -5.2834266617
  H         5.9778015101       14.4524847071       10.3353320415
  H         4.8344721639       13.7790281411        9.0109252931
  H         5.9284129335       12.7133042977        9.8478360899
  H        21.0810987183       17.8708372128       14.6918440613
  H        19.4805423685       17.9318103258       15.3093175398
  H        20.9929003127       18.4990091216       16.2884716411
  C        11.7578237416        8.6286263892       22.2235616753
  N        11.8660326139        7.2872841720       22.2282807294
  O        12.7497637521        5.5816982287       20.9377257118
  S        10.8998885532        9.2833283908       23.6378001311
  C        11.7431581473        6.4333559194       23.4361204419
  H        11.6313925978        5.4519758813       23.0533440849
  H        10.8378966757        6.6179411499       24.0041804850
  C        12.9871424830        6.5579436907       24.2466663592
  H        13.0520986873        7.4616455497       24.8360654415
  H        13.8516263496        6.4550958448       23.6191554455
  H        13.0392669188        5.7456560323       24.9265149155
