352
 i =    46800, time =    46800.000, E =        24.9578977543
  H        11.5948054896        8.1816250344       32.6712060414
  C        11.5119692158        7.2100614537       32.1607133905
  H        12.4489238821        7.1144286217       31.6258305986
  C        10.4612523299        7.2606054617       31.0484050485
  C        11.1522373468        6.0512470655       33.1275755685
  C        10.9684906231        6.3191142608       30.0067705780
  H         9.5478576339        6.8752346478       31.5047152660
  H        10.1146452619        8.1993683891       30.6202980292
  H        10.9915742753        5.1614472710       32.5070488619
  H        12.0485015207        5.9817044970       33.8183406829
  H        10.2828878571        6.2640169438       33.6685314676
  C         9.8560517627        6.0542287911       28.9571777103
  H        11.3382408767        5.3809732697       30.4351840445
  H        11.8053201937        6.7614423780       29.4769566060
  C        10.5105303425        5.6192100548       27.6552507510
  H         9.2242269171        5.2095979439       29.2635455047
  H         9.2644413561        6.9341361294       28.6821551986
  C         9.7003190268        4.9041576888       26.6690632824
  H        11.3732679314        5.0263057050       27.8862546926
  H        11.0198979838        6.4532533534       27.1385096723
  C         8.5730278377        5.8575384076       26.2251853672
  H        10.4188038100        4.6137342517       25.8324540705
  H         9.3416404756        4.0225657038       27.1256887842
  C         7.4091983478        5.2201046046       25.4421524938
  H         8.0941216371        6.2472495016       27.1171593231
  H         8.8122826962        6.7802964472       25.6436694969
  C         7.0218360472        3.9217177766       26.1636060493
  C         7.9183083750        4.5173431438       24.3131324267
  C         6.1953411147        6.1311114777       25.1719026186
  C         7.3511417692        2.7898241796       25.4039341976
  C         6.4611418870        3.5075844676       27.3446625396
  C         7.8289979538        3.1684270101       24.2097696768
  C         8.3620626996        5.2215584615       23.1876410819
  H         6.3816051206        6.7673327708       24.3824078772
  H         5.8388082459        6.8152725417       26.0472642943
  C         4.9307377760        5.3879841001       24.7838534479
  S         6.9984948148        1.2590751750       26.1861006870
  C         6.3346181352        2.1245743467       27.4865007518
  H         6.1736594739        4.2611546622       28.0425643791
  C         8.1640274982        2.5710279256       23.0150433070
  H         8.5081053676        6.2130324520       23.1080737587
  C         8.7216248624        4.5886723618       21.9771932939
  H         5.1165334523        4.8438425365       23.8954892123
  H         4.7986158486        4.6316134849       25.4753490315
  C         3.7321430824        6.2456490885       24.6359441003
  C         5.8964448792        1.5526053728       28.8385140076
  C         8.6369219024        3.2447489400       21.8443110145
  H         7.9956335873        1.5166198461       22.8603035610
  C         9.1643367271        4.9733684586       20.7269316662
  H         3.1896351658        5.7118503176       23.9195984986
  H         3.9029496430        7.1771627805       24.1037121022
  C         2.8746898097        6.3078131540       25.8790186034
  C         5.8740044429        0.1632172321       29.1630220660
  C         5.4586771687        2.4754392585       29.8959054494
  C         8.8960176601        2.4735182731       20.6880555659
  C         9.2767844703        3.8094126536       19.9487476952
  S         9.5019953163        6.4025718435       19.8330145076
  H         2.1484914519        7.0828254552       25.8922749433
  H         3.6098974564        6.5484755771       26.6802268358
  C         2.2454783197        4.9729004134       26.2247647298
  N         6.3841461199       -0.8699968593       28.3577626640
  C         5.5261230118       -0.2903145337       30.4766149112
  C         5.0959859250        2.0060533457       31.1133241020
  H         5.5178752186        3.5068699472       29.7893795423
  C         7.7047202652        1.6737583750       20.0567949981
  C        10.1660277079        1.6008520733       21.0761950559
  C         9.5469904998        4.1171674749       18.5906627023
  C         9.6975855854        5.4743758247       18.3615481908
  H         1.6612065584        4.6162326428       25.3801576790
  H         2.9152519357        4.1607770238       26.4921828203
  C         1.2334270463        5.0475269835       27.4616482682
  S         6.4161470259       -2.2324381501       29.1685508032
  N         5.6554386402       -1.7198485879       30.4835848096
  C         5.0934133754        0.5741356023       31.4888019288
  H         4.8677406339        2.7994759513       31.7843877410
  H         7.3781190048        1.0564591824       20.8792951252
  H         8.2050689427        1.0663136896       19.2600035122
  C         6.5688873666        2.5787302124       19.6632627285
  H         9.9558678690        0.5896761713       20.8451932705
  H        10.4089862154        1.7001348837       22.0897864684
  C        11.4759290975        2.0354132464       20.3833784701
  H         9.6281415657        3.3649852557       17.8624147777
  C        10.0701051657        6.1432898270       17.0803549851
  H         0.6491912471        4.1412838046       27.6137557512
  H         0.5241844757        5.8018677918       27.1215033317
  C         1.8659690470        5.2938688152       28.8087068799
  C         4.8344382997        0.0100853318       32.7924283813
  H         6.8827756652        3.2501438037       18.7866462273
  H         6.3083437056        3.1404872264       20.5721905860
  C         5.2491231847        1.8915604607       19.4190586397
  H        11.5354793260        3.0694903671       20.5644941736
  H        11.3046164211        1.8209444474       19.2719114733
  C        12.7564487373        1.4336108278       20.9454865867
  C        10.0186063523        7.5198715408       16.7779422427
  C        10.4208445998        5.2965372728       15.9107648491
  H         2.4659491725        4.4345857477       29.1475343853
  H         2.6086744364        6.1010530319       28.7494947383
  C         0.9636223284        5.5252867914       29.9510565318
  H         5.1154990867       -1.0478111882       32.9033919180
  C         4.5415735537        0.6027570580       34.0190258549
  H         4.5753100174        2.2758036428       20.1901503420
  H         5.2584569945        0.8156955701       19.6640422606
  C         4.4890040251        2.2253773149       18.0956962495
  H        12.5173594318        1.0757704948       21.9653635027
  H        13.0037780205        0.5031706696       20.4151124010
  C        13.9742756329        2.2988304205       20.8587330673
  N         9.7189659887        8.5107151820       17.7426570628
  C        10.3526951113        8.0400545935       15.5857393674
  C        10.6546166833        5.7923811604       14.6246642995
  H        10.3897389885        4.2097726269       16.0370680758
  H         0.0557622944        4.9871563842       29.9458905281
  H         1.3554490436        5.4267260501       30.9565336691
  H         0.6096500895        6.5505994759       29.9691557429
  S         4.3639964687        2.1567300856       34.3765955738
  C         4.4005302274       -0.3898266349       35.1501883288
  H         4.2377357553        3.3084932515       17.8419174068
  H         5.1981295984        2.0754483858       17.2978293147
  C         3.2289172469        1.3735352915       17.8587479214
  H        13.6833796041        3.1720038062       20.2949087991
  H        14.7881952159        1.6289081045       20.4816188260
  C        14.4136426749        2.8348254852       22.2477550931
  S         9.8602293056        9.9625236970       16.9886943827
  N        10.3829239173        9.3893353843       15.5964965984
  C        10.6399408167        7.2873666439       14.4521062748
  H        10.7955364903        5.0988581841       13.8100075557
  C         4.0057010356        1.6008162958       36.0771731685
  N         3.9373781059        0.2575602548       36.2450172855
  O         4.5458190117       -1.6546608962       35.0621786240
  H         2.5645705354        2.0391026363       17.3010308212
  H         2.7330070488        1.2512443179       18.8163870731
  C         3.5601426758        0.1232948411       17.0459808167
  H        14.9886552078        3.6836653640       22.0837938108
  H        13.6506335589        3.3157281468       22.8147649913
  C        15.1698204023        1.8002989570       23.0748526747
  C        10.8705748367        8.0694773670       13.2546418905
  S         3.6310753314        2.6038857897       37.5543744256
  C         3.7170537975       -0.4204385010       37.4803147062
  H         3.9668351558        0.4194835446       16.1075253232
  H         4.3013462944       -0.4604709139       17.6638992169
  C         2.2088661887       -0.7316349981       16.7920426451
  H        15.0978448892        0.8871858225       22.5097571419
  H        14.6570162061        1.6239057438       23.9836230824
  C        16.6196543644        2.2521035566       23.2437401427
  H        10.3964796733        9.0110158644       13.2030514268
  C        11.3075974021        7.6204836496       12.0332740709
  H         2.9373823043        0.0582615586       38.0829111703
  H         3.4128678025       -1.4378626893       37.2886554992
  C         4.9694144288       -0.3554975063       38.3811345964
  H         2.5073993541       -1.5891381588       16.1344645225
  H         1.4335910529       -0.0915426761       16.2529351849
  C         1.6519916668       -1.2658274179       18.1267650801
  H        16.6608692381        3.2287262920       23.7140539390
  H        17.1243483493        1.4493224774       23.7914328891
  C        17.3594318382        2.4897069090       21.9182611058
  S        11.9914354071        6.0936406290       11.5783815225
  C        11.4406786962        8.7215641067       11.0331376196
  H         5.1118203835        0.5734022348       38.8733184830
  H         4.8127232358       -0.9415093274       39.2560421581
  H         5.9422486794       -0.5854219078       37.8660397491
  H         0.9468567568       -0.4557965810       18.6219669857
  H         2.4538053033       -1.5058094892       18.7906393662
  H         1.0643046232       -2.1597162757       18.0121550390
  H        17.0832661288        1.7642033443       21.2314389694
  H        18.4436869193        2.3002999525       22.0315228888
  H        17.1880963449        3.4093261431       21.4689610474
  C        12.1812733628        6.8767722464       10.0080949166
  N        12.0047648018        8.2441712810        9.9339574295
  O        11.1875830511        9.9067346205       11.2065324784
  S        12.8888438288        6.0476764630        8.5983214825
  C        12.0900822210        9.0379251179        8.7439370438
  H        12.4620719972       10.0205064787        8.9217742355
  H        12.8603584097        8.6269934239        8.1133971566
  C        10.7483539207        8.9941394108        7.9800293936
  H        10.1042721032        9.8639095819        8.1949840940
  H        10.9034578789        8.8569858845        6.8752691026
  H        10.1129227983        8.2255635251        8.4350671199
  H        21.3475028832       11.4037560956        3.5678038139
  C        21.8771450509       10.4706600304        3.5705311708
  H        21.0646123830        9.7360209802        3.5639010721
  C        22.7060563557       10.4110516158        4.8350415890
  C        22.6351437292       10.2412431012        2.2759059639
  C        21.7704134316       10.6070867813        6.0509005439
  H        23.1721120100        9.3919799828        5.0618070815
  H        23.4062035978       11.2122530599        4.6770477608
  H        22.6450342311        9.1824307178        2.0679790611
  H        23.5502069930       10.6703099705        2.0263182813
  H        22.0562830666       10.5692429534        1.4103294150
  C        20.9794724237        9.3247741715        6.5274064191
  H        22.4044013276       10.8995612957        6.9513556464
  H        21.1956345826       11.4962096057        5.7590863837
  C        20.1440340139        9.6725074640        7.7580232203
  H        21.6941485796        8.5127018305        6.7250454249
  H        20.4170982084        8.9328750494        5.7287819733
  C        19.0151504262       10.7215099922        7.5300859133
  H        20.8297761565       10.0152160015        8.5253472567
  H        19.7571678167        8.7022612256        8.2009764571
  C        17.7073040334       10.0297649975        7.2370305054
  H        18.9208983086       11.1886227176        8.5189151062
  H        19.3342140598       11.4539641993        6.7903167430
  C        16.4606603956       10.9109819150        7.0754969783
  H        17.4281255541        9.3636867810        8.0057515393
  H        17.8799836719        9.3085386440        6.4092273756
  C        16.7316289061       12.2087760636        6.3838416998
  C        16.0953725021       11.6337246129        8.3411569803
  C        15.2858653126       10.1329732898        6.3607655321
  C        16.6138810788       13.3304010442        7.1723748173
  C        17.2870487488       12.5346874535        5.1665619680
  C        16.0377907669       12.9726423912        8.3384270255
  C        15.5425309669       10.9709293000        9.4617459920
  H        15.6162051137        9.8245487393        5.3577200201
  H        15.0363948554        9.2555072415        6.8978598877
  C        14.0796435209       11.0596440284        6.1018825953
  S        16.9134692808       14.8653839917        6.3540497784
  C        17.3763828199       13.9455433201        4.9606298054
  H        17.4742055263       11.7046187456        4.5304898399
  C        15.5452722937       13.5821022908        9.4374254440
  H        15.4587174171        9.9315253228        9.4939715990
  C        15.1232319680       11.6177276399       10.5807818639
  H        14.4105508834       12.0222123454        5.7602589172
  H        13.5365402311       11.3021972500        7.1041877458
  C        13.0055273357       10.4490223804        5.1983030177
  C        17.8845640733       14.6345237011        3.7046987901
  C        15.0852241202       12.9571427029       10.6447921311
  H        15.3199617491       14.6723322797        9.4396656672
  C        14.6300350311       11.1927627761       11.7870244015
  H        12.0106987898       10.7331708910        5.5874367044
  H        13.1453439016        9.4254605503        5.2468365347
  C        13.2794053929       10.8075423616        3.7312350168
  C        17.8805458134       16.0217857158        3.4265022396
  C        18.2622740934       13.6688546654        2.6159214786
  C        14.5081370409       13.6782031566       11.8850354131
  C        14.3217003330       12.2775101783       12.5310978235
  S        14.3349401913        9.6883261123       12.6415108782
  H        14.2039600256       10.4707121596        3.4029430561
  H        13.3152658298       11.8820362099        3.5752617509
  C        12.2625349944       10.1104087300        2.8854212106
  N        17.6809803532       17.0493843204        4.3691254731
  C        18.2825623155       16.4779925045        2.1933932252
  C        18.6463456406       14.2110292262        1.3666522940
  H        18.3710251004       12.6018369865        2.7945030197
  C        13.1857542912       14.4219452636       11.4882801312
  C        15.5126267152       14.6372404682       12.6197948392
  C        13.9975583726       11.9433032928       13.8623797558
  C        14.0248430768       10.5801014492       14.0895744966
  H        11.3755658968        9.7751274744        3.5169590959
  H        11.7422740933       10.7692156451        2.2010771034
  C        12.8802041096        9.1322715406        1.9504912410
  S        17.7566515799       18.4805441307        3.5842792793
  N        18.1438746113       17.8807996661        2.0987045468
  C        18.7727309203       15.6455381738        1.1412299007
  H        19.0625246105       13.5721604069        0.5761332668
  H        13.3973476422       14.9583543030       10.5220659478
  H        12.8906315688       15.0628061655       12.2787875564
  C        12.0461215385       13.4734323026       11.0697990969
  H        15.6964313925       15.6020952082       12.0974246575
  H        15.0983566628       14.8120366085       13.6140534877
  C        16.8725615162       13.9218415354       12.7835934753
  H        13.7314641781       12.7826368407       14.4715181494
  C        13.6889970071        9.7859782246       15.3154377269
  H        12.0851317262        8.4981123144        1.6092081684
  H        13.6286387033        8.4320012457        2.3482187009
  C        13.5686158424        9.8053405321        0.7370145116
  C        19.1277442099       16.2344041160       -0.1264482057
  H        12.2449131171       13.0521632195       10.0332514701
  H        11.8769254937       12.5402714033       11.6453244536
  C        10.7653825637       14.2192694459       11.1332567661
  H        17.2367188051       13.9152646698       11.7556390737
  H        16.7711638390       12.9198828016       13.2116325517
  C        17.7673618203       14.7773167260       13.6199195140
  C        13.6570269929        8.3975061098       15.5457863281
  C        13.3847729375       10.5681542519       16.5386503958
  H        14.2120884014       10.6754354310        0.8781988245
  H        14.2424600204        9.0163463739        0.3047141535
  C        12.5660272909       10.0658530534       -0.4071643103
  H        18.9976093693       17.3090518766       -0.0685971400
  C        19.3838103326       15.7884371439       -1.4034422287
  H        10.7814076862       15.0018581007       10.3611078422
  H        10.6028659736       14.7055986646       12.0387492274
  C         9.6314614964       13.2525824101       10.6677078643
  H        17.9023066569       15.5986844787       13.0109662770
  H        17.2914018491       15.1089992950       14.4874223709
  C        19.0294303026       13.9917885430       13.9711616637
  N        13.9171015660        7.4556713244       14.5125863305
  C        13.4005117575        7.7693802438       16.7643720396
  C        13.0965352430        9.9562730352       17.7815134147
  H        13.4666347752       11.6434779595       16.4846378025
  H        12.7074062934       11.0606542715       -0.9700059855
  H        11.5223965260       10.0416517664       -0.0076903342
  H        12.5947116074        9.2467949876       -1.1189523033
  S        19.6260903023       14.1664647910       -1.8439640072
  C        19.4949215482       16.8181981891       -2.4126912054
  H         9.9558347174       12.3829641390       10.0543981820
  H         9.1992852537       12.8678800247       11.6599286834
  C         8.6356128620       14.1120553181        9.8317085004
  H        19.0373221527       13.2193785088       13.2040985487
  H        19.0113289362       13.5973876559       15.0060853988
  C        20.2835425136       14.7884567139       13.8732589461
  S        13.8215894939        6.0232960853       15.1187980997
  N        13.5176238346        6.3266465108       16.6797530146
  C        13.0392069732        8.4618926652       17.9583956463
  H        12.7814805676       10.5198453920       18.6616471405
  C        19.8785163226       14.8286703023       -3.4864702148
  N        19.8777270825       16.1886168115       -3.5906161878
  O        19.4504985355       18.0294420762       -2.1418374653
  H         8.0603307558       14.5660923218       10.6309636887
  H         9.1400357216       14.9204130249        9.2401130039
  C         7.7817903205       13.2200292949        8.9006666542
  H        21.1662783381       14.1394414580       14.0414299980
  H        20.3617189856       14.9891462051       12.8516128638
  C        20.3504272840       15.9993397950       14.7298036308
  C        12.8662839295        7.7525986173       19.1503657519
  S        20.1918114830       13.8506821934       -4.9517485558
  C        19.8127014460       16.9689155276       -4.8168703988
  H         8.2756612101       13.1352746711        7.9417037434
  H         7.7200101092       12.2426810661        9.3762900677
  C         6.4299130318       13.7680411354        8.6546075495
  H        20.3315651094       15.6639882691       15.7475874040
  H        19.4687673095       16.6077433235       14.5575763047
  C        21.5861642294       16.8342322878       14.4536358802
  H        13.0390153946        6.6698239601       19.1683332705
  C        12.3118288451        8.0983411149       20.3545290243
  H        20.5381300933       16.5649132202       -5.5128335609
  H        20.1265838231       17.9501281498       -4.5990390772
  C        18.4233936085       16.9738959806       -5.4047326476
  H         5.9480409000       13.4791531220        7.6782469930
  H         6.4076825449       14.8811720929        8.5922031143
  C         5.5050191887       13.5286417308        9.9285787483
  H        22.4690165647       16.1755767428       14.5368785085
  H        21.5423574633       17.1885791580       13.3959457479
  C        21.5809789421       18.1430293366       15.2493612094
  S        11.5645632485        9.6198130328       20.5908571276
  C        12.2977632374        7.0757039652       21.4036361180
  H        18.0078714623       15.9872427993       -5.5908216383
  H        18.4085554926       17.6064869416       -6.2838122071
  H        17.6721133416       17.2262239532       -4.5697813288
  H         5.8354545659       12.7485160488       10.5039717155
  H         5.6766285535       14.4162559612       10.5678518629
  H         4.4504268082       13.4496151111        9.7950831406
  H        20.5982869920       18.5566192425       15.0683947517
  H        21.6717677700       18.0435111717       16.3233140609
  H        22.4397404552       18.7270861062       14.9143898752
  C        11.3288754588        8.9734008829       22.2044702639
  N        11.6338143485        7.6272755582       22.4415137561
  O        12.5776263827        5.8437350171       21.2892825375
  S        10.5930538945       10.0266966185       23.4683798610
  C        11.4643833612        7.0765700369       23.7924224802
  H        11.4156826484        5.9965764925       23.6423699446
  H        10.5181415458        7.3664755211       24.1213316553
  C        12.6093413384        7.4401995209       24.7114129403
  H        12.6567289692        6.8951812394       25.7079082868
  H        12.5528853920        8.4560469340       25.0120268169
  H        13.5899774905        7.3181848343       24.2933440924
