352
 i =     3800, time =     3800.000, E =        36.5286962818
  H        11.8937366629        6.8779125082       32.2172026160
  C        11.3531367096        5.9628942238       32.3093571589
  H        12.0016553661        5.0180322678       32.0631883490
  C        10.2312056753        5.9332933482       31.2464233491
  C        10.6373274755        5.6589012939       33.6434676930
  C        10.8073859944        5.8555027250       29.8237655315
  H         9.6908344248        5.0075691780       31.4084316204
  H         9.6025958071        6.7622086679       31.3569025165
  H        11.2313718707        5.5793546462       34.5239859163
  H         9.9118421407        6.4249331372       33.9211573955
  H         9.9918554821        4.7993733777       33.5622049238
  C         9.7650569462        5.3532303451       28.8189298287
  H        11.6829580650        5.2429324471       29.9025128095
  H        11.1381198986        6.7946159739       29.5433009931
  C        10.1735614946        5.6386212222       27.3644155572
  H         9.8733556676        4.2823473033       29.0584083800
  H         8.7869259667        5.6943270977       29.1457012380
  C         9.3075123253        5.0048821550       26.3048910945
  H        11.1446466714        5.1775038872       27.2940323101
  H        10.3791975056        6.6417924548       27.1851376538
  C         8.1086278022        5.8105793067       25.7980434768
  H         9.9287357511        4.7901194979       25.5151741258
  H         9.0268356724        4.0331936689       26.6429585013
  C         7.0220248175        5.0718952209       25.0830714727
  H         7.7740767003        6.1102512852       26.8157831931
  H         8.4118726159        6.6604002942       25.2147633174
  C         6.5426615180        3.7281070326       25.8158571149
  C         7.4604338451        4.3116678796       23.8894736258
  C         5.8180202519        6.0262599137       24.9377717857
  C         6.8399015579        2.6194623727       25.0558226353
  C         6.1572615023        3.3773161867       27.0953549191
  C         7.3040074817        2.9698121275       23.8394596638
  C         8.0463924179        4.9553585331       22.7752394139
  H         6.0856887590        6.7871995919       24.2368474250
  H         5.6604930902        6.5570935750       25.9809558208
  C         4.5053448979        5.2744209494       24.6482107600
  S         6.5418905943        1.1577425868       25.9915643205
  C         6.1007454608        2.0401393779       27.3863319083
  H         5.9579360358        4.1876343259       27.6882950760
  C         7.8045749351        2.2786677542       22.7165515357
  H         7.8174418330        5.9735419624       22.6374313304
  C         8.4776447321        4.2793066315       21.7030297979
  H         4.5624345399        4.8136996659       23.7201792133
  H         4.4533614442        4.4950769473       25.3605336279
  C         3.1946012159        6.1701541602       24.6365927234
  C         5.6927242798        1.4597595850       28.7831562120
  C         8.3186114243        2.9246369467       21.5543303429
  H         7.6973871309        1.2733747189       22.7201283964
  C         8.9764950203        4.6486232355       20.4267825377
  H         2.4223267101        5.8205378075       24.0157949533
  H         3.5416435019        7.0471802119       24.1368118289
  C         2.6414338465        6.4663675346       26.0527347628
  C         5.5503889005        0.0749209508       29.0450175569
  C         5.2939354183        2.4157661538       29.8466028382
  C         8.6631731060        2.1733933419       20.2741063824
  C         9.0707371350        3.5061113077       19.6056925331
  S         9.2465324921        6.1640343920       19.7802947999
  H         1.7505265425        7.1169651143       25.8945878582
  H         3.5126632933        6.8468145047       26.6036410693
  C         2.0254326089        5.1307494995       26.6681456338
  N         5.8730691156       -0.9178089339       28.1466589629
  C         5.2611149984       -0.3452663103       30.3245451181
  C         4.9773906863        1.9934720063       31.1428002731
  H         5.4119874875        3.4520456819       29.6330473095
  C         7.4387807497        1.5246055587       19.6634424618
  C         9.8206112893        1.1936723166       20.4348529886
  C         9.5882616238        4.0079448110       18.3652361396
  C         9.7759834222        5.3640508604       18.3511518956
  H         1.2329354391        4.7218886206       25.9523661407
  H         2.6823785431        4.3022790407       26.8443983317
  C         1.4885372120        5.3148782720       28.0635549699
  S         5.6709090562       -2.3443494489       28.9581302862
  N         5.3168956076       -1.7507056568       30.3877516384
  C         4.8924097188        0.5332774316       31.3981794848
  H         5.0708482986        2.7381811285       31.9147664453
  H         7.1769878848        0.9124444944       20.4566379689
  H         7.6448107906        0.8101710894       18.8436847976
  C         6.2522296205        2.3956005911       19.2914162619
  H         9.9917716950        0.8542035178       19.3706430176
  H         9.5997203015        0.1992074517       20.9318057258
  C        11.0591710768        1.9445230457       20.9223191604
  H         9.6767508695        3.3193758820       17.5226303903
  C        10.0618982983        6.2330583120       17.0967140068
  H         0.9235850813        4.4444310161       28.3548200516
  H         0.7026587277        5.9718340246       27.8794573850
  C         2.6125507492        5.6079095673       29.1113867321
  C         4.6997944335       -0.1452338707       32.6638549383
  H         6.5461296241        3.2160037061       18.6357334831
  H         5.7670051837        2.8591016814       20.1386344436
  C         5.2147609985        1.5417377641       18.5031812281
  H        10.9207675099        2.4979323849       21.8460160068
  H        11.3025105734        2.7666177825       20.2778913074
  C        12.3429031816        1.2060364099       21.2772363193
  C         9.8304006741        7.6024432864       16.9395347508
  C        10.3460557793        5.5441366930       15.8469429561
  H         3.3242075160        4.8288509644       28.9656892824
  H         3.1632568700        6.5243283128       28.9189017139
  C         2.0727674785        5.6777183757       30.5351046235
  H         4.5927540321       -1.2023833553       32.5953788799
  C         4.4277502198        0.3191365678       33.9306405340
  H         5.5514091219        0.6133706242       18.5610188493
  H         5.3264384180        1.6540786289       17.4756059735
  C         3.7728809163        1.8525477158       18.7670742728
  H        12.2407110054        0.6024004161       22.1737268588
  H        12.8163608598        0.4714960535       20.5672088428
  C        13.5126035897        2.1546639633       21.7600132256
  N         9.5911455901        8.4888792503       18.0470380758
  C        10.0860859298        8.2765573374       15.7939496870
  C        10.4578679844        6.1854938575       14.5799238723
  H        10.0969655282        4.5334564974       15.7524663721
  H         2.7005031373        6.1867266904       31.1952099690
  H         1.0626434058        6.1433010749       30.6788487992
  H         1.9489478349        4.7148634785       30.7882521227
  S         4.1269356548        1.9018400347       34.4284664004
  C         4.3611028171       -0.7646635051       34.9789337389
  H         3.7148124676        2.6349980990       19.5583276983
  H         3.3720811957        2.2745554242       17.8091697306
  C         2.9274830164        0.7041578130       19.2576984173
  H        13.1107827292        3.0341828026       22.3755849030
  H        14.1302134566        2.3602675909       20.9131109306
  C        14.5701973350        1.5139811009       22.6579278953
  S         9.7328911098       10.0356807363       17.5196873500
  N        10.1307934080        9.6770983414       15.9736420889
  C        10.4213643239        7.6788229427       14.5537311345
  H        10.1658156051        5.5451096968       13.7361435349
  C         3.9389083911        1.1763815819       36.0390112240
  N         4.1063395526       -0.1512130726       36.1253113636
  O         4.2424642761       -2.0191189941       34.7441599400
  H         1.9824925447        1.0134534077       19.5350255074
  H         3.4002292427        0.3076096516       20.1680241520
  C         2.7177872890       -0.4440730057       18.1892721823
  H        14.2752265005        1.0403758306       23.5562337021
  H        15.0643055666        0.6215183269       22.1840775027
  C        15.6896504572        2.3608291636       23.1908072775
  C        10.6728923212        8.4348691402       13.3834915483
  S         3.6431238824        2.0778356464       37.4964979290
  C         3.9859479991       -0.8607416120       37.4117517067
  H         2.7354581769        0.0137530854       17.2529213379
  H         3.4730838080       -1.1560799882       18.2005165970
  C         1.2745227291       -1.0113661860       18.1865814656
  H        15.6053873047        2.5567758121       24.3160079152
  H        15.6171955669        3.2760925235       22.6931603515
  C        17.0083240335        1.7685870098       23.2136120457
  H        10.5188461023        9.4996139237       13.4614159983
  C        11.1580216863        8.1856163088       12.1473427962
  H         3.3107120962       -0.3598845409       38.1590136521
  H         3.4089520114       -1.7280506384       37.2236659471
  C         5.3383075866       -1.1011743058       38.0913425783
  H         0.6073745321       -0.2576790188       17.6776030322
  H         0.9672452883       -1.1504203832       19.1990412607
  C         1.0026838120       -2.2485659261       17.3144453988
  H        17.5523713064        2.2134591325       24.0838345472
  H        17.1631785440        0.7235495978       23.4927587523
  C        17.6948443247        1.8797572101       21.8667926564
  S        11.7769372212        6.6147890868       11.6666167702
  C        11.3303156563        9.2702302933       11.2511947502
  H         6.0370410251       -0.2607735092       37.7899708408
  H         5.3013515397       -1.3556432370       39.2166240188
  H         5.7384697639       -2.0784953391       37.6790944696
  H         1.9563758984       -2.7697438058       16.9772430426
  H         0.6867864710       -1.9820644333       16.2701257588
  H         0.2453465068       -2.9343002037       17.7196395755
  H        18.4862148326        1.1395941526       21.6559140565
  H        18.3268597903        2.7272263916       21.8037802720
  H        16.8751313195        1.9140685061       21.1482297131
  C        12.3898752592        7.4845918753       10.2725003241
  N        12.0709810464        8.8068226501       10.1996951847
  O        10.7699108890       10.3792057564       11.2647200592
  S        13.2295143009        6.6093981491        8.9108256588
  C        12.1897641868        9.6820010113        9.0636886116
  H        12.1556148089       10.6783638248        9.4616632829
  H        13.2337761015        9.6304445405        8.7283158748
  C        11.1946175173        9.4836993591        7.8544424151
  H        10.1798739793        9.4989355625        8.2956012098
  H        11.0861551554       10.4815975333        7.3180667176
  H        11.4720975598        8.6913788650        7.2723260906
  H        21.5571590630       11.5403475427        3.9304834798
  C        21.7664232999       10.4652470387        4.0058892987
  H        20.8853829548        9.8138026183        4.0941900897
  C        22.6432000882       10.3579613925        5.2352589780
  C        22.6274902388       10.3359769051        2.7954992974
  C        21.9874612700       10.7246909760        6.6472103680
  H        23.3656458330        9.4924287378        5.2064172776
  H        23.3547605071       11.2522415288        5.2078127655
  H        23.0610027134       11.1929551259        2.1782790774
  H        22.2079501346        9.7524964500        2.0269158732
  H        23.4855262419        9.7163746588        3.0125374055
  C        21.1791342438        9.5986942121        7.2808115055
  H        22.5903489131       11.3680145496        7.2385355001
  H        21.2816505238       11.4384115237        6.3212622580
  C        20.3920896446       10.1147914262        8.5998811620
  H        21.8732432582        8.7933132099        7.5956258187
  H        20.4495820451        9.1096136719        6.6011109907
  C        19.0513601689       10.8777736371        8.2887727039
  H        21.1061814276       10.7278661978        9.1834098613
  H        20.1800040212        9.3125593904        9.2459706788
  C        17.9194858176       10.0271588769        7.5252499265
  H        18.8040837073       11.2368343405        9.2975638544
  H        19.2513308721       11.7278811177        7.6744386108
  C        16.7651866139       10.9657644050        7.1410571284
  H        17.5251422309        9.1675684520        8.0337337834
  H        18.3164971159        9.6249290231        6.6099901572
  C        16.9813394990       12.3158961656        6.5015545888
  C        16.2008813262       11.7289825219        8.2967016864
  C        15.5122337594       10.1320174107        6.5299721995
  C        16.6748385654       13.4209766500        7.2861733471
  C        17.6634629250       12.7379372026        5.2967530546
  C        16.1808797762       13.0665805228        8.4432103383
  C        15.7367374958       11.0419102874        9.4105127904
  H        15.7040714835        9.7284755438        5.5382129260
  H        15.1913482684        9.2889907422        7.1919877020
  C        14.3049706691       11.1559045172        6.1433016994
  S        17.0678540493       14.9257469656        6.5399227983
  C        17.6526390115       14.0990003976        5.1272248946
  H        18.0558985897       12.0064484093        4.6485480743
  C        15.7587233640       13.6515094155        9.6615803848
  H        15.7064808314        9.9765510609        9.4189292720
  C        15.3888246261       11.5981520333       10.5981662671
  H        14.6001951955       12.1286782687        5.7115588255
  H        13.8603640120       11.3595841152        7.1386887740
  C        13.3339506138       10.3522449250        5.2328120833
  C        17.9967027394       14.8740982104        3.8575235775
  C        15.3611182039       12.8966484211       10.7840477911
  H        15.9431495342       14.6886906323        9.7922298633
  C        14.9477190481       11.1859930199       11.8321490319
  H        12.3784296244       10.9108736447        5.2266209039
  H        13.4490324439        9.3133572883        5.5889259344
  C        13.7670936061       10.5493229732        3.7217186224
  C        18.0103606413       16.2567638944        3.7168945789
  C        18.4143696834       14.1720529495        2.6213666397
  C        14.8642623745       13.5624587737       12.0678653188
  C        14.6966346170       12.1826187567       12.7755986695
  S        14.5436465120        9.6005574356       12.5012304540
  H        14.3787741603        9.7039326038        3.4640627087
  H        14.2594665819       11.3874014451        3.5330812470
  C        12.6438590562       10.4375833389        2.7563362084
  N        17.7939623118       17.2552755682        4.7363159055
  C        18.3879684680       16.8266512736        2.5116583995
  C        18.6399373448       14.7135168687        1.3607792622
  H        18.5457073478       13.1158917172        2.7352210909
  C        13.4169151183       14.2593191242       11.9097429886
  C        15.9738422084       14.4513913846       12.7922951311
  C        14.2869676621       11.7389422186       14.0055720645
  C        14.1717666918       10.3721300572       14.0332024079
  H        12.0055043149        9.5531626787        2.8226956836
  H        11.9582724573       11.2740740664        2.8600233823
  C        13.2355463391       10.6599604506        1.3425579590
  S        17.9887300700       18.7414616585        4.0368444684
  N        18.2881174027       18.2403508759        2.5369015043
  C        18.5748942383       16.2075438170        1.2689782927
  H        19.1022099721       14.1347914287        0.5288825785
  H        13.5820018294       14.9025790997       11.0331425461
  H        13.2510656584       14.8553710634       12.7640859243
  C        12.2552771511       13.2726261127       11.7091189377
  H        15.9733261758       15.3415529605       12.1922897541
  H        15.6668079848       14.8190992502       13.7195656662
  C        17.3043236940       13.7113689240       13.0448290452
  H        14.1823387749       12.4740543816       14.7938936231
  C        13.7992500544        9.6212588335       15.2568232016
  H        14.2532902999       10.1894987914        1.2650340549
  H        13.2328958542       11.7172536234        1.1869775131
  C        12.4608069123        9.9534037992        0.2765967051
  C        18.7995407066       16.9946883075        0.0593147479
  H        12.6003801313       12.7322181865       10.8530773322
  H        12.0801788592       12.7577844516       12.6080777810
  C        11.1075402791       14.1549784067       11.2286167893
  H        17.6633149192       13.5051146470       12.1025828410
  H        17.0533749252       12.7449068024       13.4815474709
  C        18.2432089171       14.4654219425       14.0092090380
  C        13.8670436052        8.2123692694       15.3634053217
  C        13.3911129967       10.3199126540       16.4817957484
  H        12.1665293196        8.9024148410        0.4573632566
  H        11.6216256213       10.6850981440        0.0772458317
  C        13.3295236037        9.9923080945       -1.0341287767
  H        18.6953815100       18.0713694160        0.2104078517
  C        19.0324848462       16.5932078969       -1.2386113974
  H        11.4601242246       15.0680693529       10.6977219495
  H        10.6851540972       14.5620168487       12.1423313449
  C        10.1667254237       13.4101347438       10.2683227007
  H        18.3823075527       15.4815667645       13.6174977215
  H        17.7604183389       14.4055217297       15.0098652724
  C        19.5936833610       13.7924625602       14.2109151706
  N        14.3165294338        7.2874570951       14.3661064816
  C        13.4794682825        7.5386277540       16.4421190633
  C        13.0586650701        9.6251051178       17.6458102587
  H        13.2686719125       11.3783525191       16.3907588509
  H        12.7242702809        9.6795032546       -1.8744602154
  H        14.0160249312        9.1860264538       -0.8335832584
  H        13.8427887363       10.9072154550       -1.1644557689
  S        19.2267319443       14.9661779604       -1.8135521145
  C        19.0309223514       17.5709142725       -2.3397666783
  H        10.6362077249       12.8994266167        9.3801460774
  H         9.8909901933       12.5649635154       10.8667142197
  C         8.9762842506       14.1589483779        9.9126544080
  H        19.7388234399       13.1970975996       13.3087552460
  H        19.4976932712       13.3275705413       15.1906149699
  C        20.8178661706       14.6628023191       14.0878671440
  S        14.0390730516        5.7840739260       14.8407713665
  N        13.6745145956        6.1883711223       16.3753206282
  C        13.0947911964        8.1347066975       17.6156129624
  H        12.8069319305       10.1506492139       18.6182169743
  C        19.4973175046       15.6334919687       -3.3745762884
  N        19.2805104584       17.0125621478       -3.5255822850
  O        18.7091861027       18.7579838250       -2.1149509520
  H         8.6973051463       14.6704136335       10.9123919919
  H         9.3744458865       14.8573323758        9.2160377567
  C         7.8608742701       13.4075756980        9.2364497485
  H        21.6375400208       13.9567668939       13.9095131616
  H        20.8159414538       15.3614606740       13.2361792582
  C        21.0618833011       15.5329287834       15.3014097813
  C        12.7042943106        7.2513797084       18.6250628658
  S        19.6940667434       14.6127818058       -4.7940827437
  C        19.2721116969       17.7331319983       -4.7784460756
  H         8.1267997853       13.3221587504        8.1779357628
  H         7.7463981407       12.3969720573        9.5489793844
  C         6.4362094986       14.0035562045        9.4816954074
  H        21.1634909362       14.9123289296       16.1343399245
  H        20.1491256056       15.9149699027       15.5854339179
  C        22.0282521418       16.6883434091       14.9301490709
  H        12.9790275906        6.1997509084       18.5598751339
  C        12.4599631176        7.5066452598       19.9484732863
  H        20.0668898890       17.2410116131       -5.4164602343
  H        19.5622207795       18.7608368320       -4.5528850948
  C        17.9027079283       17.6396410505       -5.3382264131
  H         5.9065706971       13.4489728925        8.7367440310
  H         6.4523792987       15.0503640881        9.2998036289
  C         5.8657683112       13.4065991917       10.7582506330
  H        22.6587777947       17.0949240567       15.7487885831
  H        22.6935363442       16.3787300528       14.0997424901
  C        21.3355292768       17.9148366359       14.4052806497
  S        11.9255164778        8.9292870778       20.6723346550
  C        12.2397011220        6.3032736564       20.8381739466
  H        17.7682900883       18.3962333261       -6.0091579949
  H        17.2236783067       17.6349454685       -4.5196235733
  H        17.7296873819       16.8457327643       -5.9701583211
  H         4.8633650249       13.7309618639       10.9211615983
  H         5.7832258961       12.3692822329       10.6886520125
  H         6.5428543649       13.5297551221       11.6145158225
  H        22.1932543874       18.6435769705       14.2622455029
  H        20.8529923726       17.7630201876       13.5609745236
  H        20.4951941779       18.2462636184       15.0164710771
  C        11.6284463180        8.1124858890       22.1892982338
  N        11.8474485792        6.7248688228       22.0803235961
  O        12.6587566855        5.1618872253       20.6533043434
  S        11.1719739115        8.9195351177       23.7330317967
  C        11.6894695596        5.8044698037       23.2105930697
  H        11.4500133094        4.7914605366       22.7607609457
  H        10.8039816977        6.1259472858       23.7437351200
  C        12.8324491747        5.6236443872       24.0912612092
  H        12.7595252192        4.6824279920       24.7255101916
  H        12.9628379784        6.3597138012       24.7672008810
  H        13.8150976931        5.4844846322       23.5839356603
