352
 i =     4100, time =     4100.000, E =        35.6552450565
  H        12.2834784645        6.7392796673       32.2470145417
  C        11.4276459311        6.0290521741       32.2347700933
  H        12.0236728376        5.1123575455       32.2157854163
  C        10.3416471640        6.1075420699       31.2020491677
  C        10.7439906260        6.2648467667       33.6032463202
  C        10.8511554781        5.7921822838       29.8213275955
  H         9.4512358453        5.5281891618       31.5085975343
  H        10.0001621173        7.1551559061       31.1731107894
  H        11.4403602528        6.8416324666       34.2595171218
  H         9.8042580236        6.8136723980       33.5491263846
  H        10.4338806597        5.3364215396       34.0854991781
  C         9.7380719203        5.8440207708       28.8266260083
  H        11.1979356437        4.7896338177       29.7781385527
  H        11.7308833852        6.3753802366       29.4403203681
  C        10.3136100012        5.5344459516       27.4311965408
  H         8.7982716943        5.2549787839       29.1424741093
  H         9.4587392745        6.8834170216       28.7407229282
  C         9.2942834703        4.9042310982       26.4815089590
  H        11.2424259300        4.9900421879       27.4301388387
  H        10.5044301046        6.5083729281       27.0203712807
  C         8.1601658293        5.7925000471       26.0812558787
  H         9.7425396624        4.5444787767       25.5847096997
  H         8.8277170257        4.0187029641       26.9729673448
  C         6.9576369419        5.1638811666       25.3656445790
  H         7.6981463212        6.1161422432       26.9909041257
  H         8.3468420425        6.7094502455       25.6334315799
  C         6.6623282067        3.8616885389       26.0407884410
  C         7.3253842305        4.4754408351       24.1318646266
  C         5.8646027531        6.1591735017       25.2581163630
  C         6.9528238865        2.7252762336       25.2224391680
  C         6.1084485710        3.4889485099       27.2683479195
  C         7.3394878442        3.1337638898       24.0058403972
  C         7.7346059486        5.1098104795       22.9270565642
  H         6.1435369857        7.0381521152       24.6436474634
  H         5.6686973251        6.6515821304       26.1620855305
  C         4.5054519955        5.5097965234       24.9076731080
  S         6.6871081888        1.2630738667       26.0171241597
  C         6.0133740239        2.1130881354       27.3408103708
  H         5.7751220669        4.1650362593       27.9964748825
  C         7.7174323258        2.4121141525       22.8750395102
  H         7.7663086201        6.1595020358       22.9179278210
  C         8.0535073237        4.3976297101       21.7228644958
  H         4.4044675710        5.0631875112       23.8973610982
  H         4.2914511372        4.6376622249       25.4653457533
  C         3.3348692618        6.4407165534       25.0900559089
  C         5.5595170734        1.4707001622       28.6571413773
  C         8.1073221545        3.0716068988       21.7137099795
  H         7.4237033849        1.3853357844       22.9080875983
  C         8.5418512925        4.7834284735       20.4811111395
  H         2.4995604597        6.1535450484       24.4768768441
  H         3.5319717350        7.3880899034       24.6883647289
  C         2.9399455376        6.5414585449       26.5858789121
  C         5.5206560382        0.1214353530       28.8941123203
  C         5.1910996889        2.2903164943       29.8134286058
  C         8.5972382837        2.3594160825       20.4367203227
  C         8.8597685795        3.7181889191       19.7135600314
  S         8.8555487606        6.3264925624       19.7568861066
  H         2.3148430056        7.4349349398       26.6013411804
  H         3.8295893790        6.6588698628       27.1254089536
  C         2.0445538018        5.2854565385       26.9338809454
  N         5.7265867209       -0.8705563008       27.9112869440
  C         5.3585679210       -0.4650498484       30.1895861181
  C         5.0686371746        1.7997700662       31.0831049074
  H         4.9283940845        3.3044023885       29.6658591742
  C         7.5654732434        1.5241401209       19.6325522196
  C         9.8574164836        1.5413824845       20.7023839995
  C         9.2759701995        4.1456017109       18.4297753255
  C         9.4292686899        5.4989914141       18.3191935602
  H         1.4535961416        4.8682892894       26.1045111113
  H         2.7488740490        4.4787016731       27.0724165986
  C         0.9224908538        5.4314544060       27.9362950431
  S         5.8538286767       -2.3161030815       28.6253139115
  N         5.3211420118       -1.9195721665       30.1279473970
  C         5.0850537655        0.3470747460       31.3268349187
  H         4.8457618091        2.4830593603       31.8808722978
  H         7.3678493805        0.5592732585       20.2028723700
  H         8.0606189978        1.2042288513       18.7120891654
  C         6.3401445316        2.4276420339       19.1629161071
  H        10.1494028381        1.1562248547       19.7245643723
  H         9.5830601955        0.8036091038       21.5325966824
  C        11.0174767193        2.2896811771       21.1813933705
  H         9.5449021827        3.3485342871       17.7187305422
  C         9.9067319955        6.2483059345       17.1181387872
  H         0.1764228271        4.6014310548       28.0088454483
  H         0.3867739747        6.2541603412       27.5478047618
  C         1.7171674633        5.6344877575       29.2887438779
  C         4.8507162318       -0.3184057285       32.6417278298
  H         6.6798353790        3.2255329177       18.5111573440
  H         5.8902459954        2.8593897753       20.0500043587
  C         5.2833577821        1.8158824844       18.1960619871
  H        10.8761737288        2.7391926619       22.1467852656
  H        11.3803986879        3.0413104629       20.4536463069
  C        12.2761771021        1.4136342988       21.4157816448
  C         9.8053277283        7.6296467313       16.9174517934
  C        10.2971383662        5.5561998258       15.8722158677
  H         2.5183594444        4.8847199331       29.3994562604
  H         2.2438630430        6.6166588624       29.3579909615
  C         0.7842023504        5.4842828041       30.4958653132
  H         4.8900537989       -1.3843138639       32.5470397027
  C         4.6264593286        0.0758786719       33.9298092658
  H         5.4529949289        0.7773298080       18.1788754566
  H         5.2757933685        1.9901820371       17.1240744707
  C         3.8316953272        2.1677278163       18.5879617122
  H        11.9463587427        0.6244772660       22.1433037635
  H        12.5173844205        0.8572632848       20.5740864259
  C        13.4593803294        2.1210378501       22.1083585778
  N         9.5506520971        8.4929722362       18.0202374063
  C        10.2746920393        8.3024667228       15.8177466455
  C        10.5953762829        6.1897055234       14.6913023933
  H        10.5262082101        4.4703955249       15.9077567055
  H         1.4843599927        5.3006643077       31.4446393323
  H         0.3158601334        6.3438823184       30.8098125311
  H         0.0722564449        4.6713761733       30.2936017413
  S         4.4971699367        1.6764319049       34.4088726320
  C         4.5627100661       -0.9590505666       35.0349696212
  H         3.8229176599        3.0802952230       19.1139635500
  H         3.3127187643        2.3014214683       17.6066905623
  C         2.9834874536        1.0232397412       19.2452898877
  H        13.2039716737        2.5755344529       23.0279585078
  H        13.7126039923        2.9462359123       21.4133397247
  C        14.7759084669        1.3480332335       22.2631029313
  S         9.7319633511       10.0250780611       17.4754827639
  N        10.1723930610        9.7032663855       15.9292825467
  C        10.8006285754        7.6416515083       14.6670610798
  H        10.9005542128        5.5144911383       13.9318768318
  C         4.2132547946        1.0163213677       36.0219739036
  N         4.2144373407       -0.3099424864       36.1037702658
  O         4.3696132709       -2.1390958822       34.7788130261
  H         2.0264405566        1.3624300145       19.5466952078
  H         3.4487913997        0.7907333873       20.2289439450
  C         2.7158122336       -0.2277174831       18.4791285637
  H        14.5121967123        0.2518790788       22.5777494138
  H        15.3487501674        1.2118310153       21.2888650408
  C        15.6620411193        2.0707830584       23.2110449161
  C        10.9185544714        8.4134574725       13.4037349029
  S         3.6445003855        2.0480523668       37.3310724179
  C         4.1306554000       -1.0812503338       37.2974990230
  H         2.5211550169       -0.1349322868       17.4326494975
  H         3.7042732186       -0.6068047098       18.5330465727
  C         1.6949808374       -1.0629126889       19.1796795071
  H        15.4961082795        1.7322674908       24.1765521456
  H        15.3102569391        3.1403855796       23.2325831323
  C        17.1108646060        1.6576840215       23.1843767332
  H        10.6955686895        9.4819870394       13.5244646977
  C        11.2842220661        8.0941920352       12.0822258425
  H         3.3018013814       -0.7840372878       37.9745472458
  H         3.7224256060       -2.1079272542       36.9530416930
  C         5.4289927850       -1.1789334216       38.0644346228
  H         0.7782515106       -0.4313932616       19.4465054598
  H         2.0960985827       -1.4552800474       20.1546423579
  C         1.1906953660       -2.0986156688       18.1665609223
  H        17.4852952030        1.8718285668       24.2148786792
  H        17.3490742478        0.5689914456       23.0822978617
  C        17.8271108403        2.3522531699       22.0210245020
  S        11.7686655050        6.5460795374       11.6331836893
  C        11.3493640691        9.1458845039       11.0837516061
  H         6.2211096028       -0.4993137380       37.8585894854
  H         5.2685878411       -1.2215163306       39.0945917666
  H         5.8117509361       -2.1496289753       37.9846291573
  H         1.9500067393       -2.7797185847       17.8172452998
  H         0.6354439094       -1.8552770373       17.3299021779
  H         0.6690863610       -2.8504711887       18.6911110003
  H        18.8594667869        2.0816477206       21.7932163784
  H        17.9243332089        3.4633094604       22.1863198479
  H        17.2213177733        2.3532678773       21.1374834847
  C        12.2395890380        7.3078121455       10.1484092279
  N        12.0380958540        8.6404041444       10.0476899185
  O        11.1425104143       10.3442375472       11.2422122455
  S        12.7577295605        6.5229456394        8.6481733692
  C        12.2658044520        9.3671023340        8.7522757877
  H        12.5490294242       10.3692673089        9.0941281913
  H        13.2132439175        9.1730285308        8.2155132336
  C        11.1020758601        9.3836236512        7.9241227656
  H        10.2389978405        9.2292492485        8.4982269189
  H        10.8908465046       10.2840950735        7.3444318790
  H        11.2043345115        8.5310472842        7.1630702219
  H        20.6769636828       11.3366628441        3.3746940261
  C        21.0747383024       10.3315525716        3.5746190996
  H        20.3571973337        9.6270278881        3.9284438272
  C        22.1659693047       10.5225884579        4.6205088608
  C        21.7158071301        9.9380122771        2.2877055485
  C        21.6196348544       10.8543175876        6.0082419791
  H        22.8912784100        9.7447926112        4.5207536991
  H        22.6366157848       11.4101348063        4.2013515478
  H        22.2659901224       10.7105212127        1.7701092907
  H        21.0366489880        9.6182966910        1.5384825685
  H        22.3890449975        9.0688131446        2.5085609222
  C        21.1122700784        9.5970999664        6.7590949214
  H        22.2810866439       11.4572315669        6.6034068760
  H        20.7004800330       11.5177444970        5.9065827384
  C        20.3869484750        9.8229662027        8.0514838105
  H        22.0404591572        9.0319465879        6.9606512711
  H        20.5393226459        8.9240430765        6.1311133187
  C        19.0472877677       10.6028492191        7.9213910367
  H        21.1019617100       10.2664261175        8.7890576960
  H        20.3142961089        8.8515694323        8.4394506783
  C        17.8577043973        9.8472518656        7.2508099620
  H        18.8662147975       10.8701969646        8.9230660942
  H        19.2969919312       11.5823471025        7.4400483949
  C        16.6157842607       10.8701169708        7.0755826605
  H        17.5331668756        8.9186533484        7.7721713618
  H        18.0573752486        9.4750537438        6.2005925130
  C        17.0169430253       12.2433272042        6.4547504167
  C        16.2106330430       11.5913849471        8.3290877321
  C        15.3399215208       10.2080928414        6.3102947113
  C        16.7416168544       13.3238634189        7.2979811239
  C        17.3484995592       12.6625060329        5.1829551299
  C        16.2976950655       12.9048206310        8.4897788291
  C        15.7835561377       10.8673099565        9.4114655693
  H        15.6567167942        9.6904207016        5.4340211614
  H        14.9897029483        9.4909875097        6.9946523613
  C        14.1632803374       11.0587973668        6.0279258947
  S        17.2504865662       14.7489119872        6.5853879310
  C        17.6079256009       13.9696981482        5.1086034070
  H        17.5291693216       11.8913152887        4.4869734890
  C        15.8397170774       13.4645135064        9.6602831982
  H        15.6494304600        9.8426220413        9.2801956410
  C        15.3428626360       11.4201082090       10.5705935963
  H        14.5989440788       11.8880330971        5.5298358452
  H        13.6657802688       11.5175910804        6.8935670018
  C        13.2444600672       10.4022117060        5.0999323431
  C        18.1701157013       14.7421156524        3.9690687098
  C        15.3583535088       12.7421073512       10.7764276559
  H        15.7433389534       14.5033882164        9.6538456995
  C        14.9066010948       10.9593682201       11.8446076981
  H        12.2115092587       10.8642479695        5.0783130062
  H        13.1222595750        9.4145025719        5.5034771322
  C        13.6712714764       10.1192635899        3.7185401315
  C        18.0700397765       16.1173384998        3.7584267106
  C        18.4044038770       13.9422539640        2.8012743040
  C        15.0491697709       13.3647856248       12.1213551712
  C        14.8056090234       12.0206202899       12.7423728597
  S        14.6101369633        9.3871640354       12.5649045777
  H        14.2118867394        9.2606891087        3.7631977614
  H        14.3275444682       10.9282075486        3.3802725038
  C        12.5573266466        9.8575713575        2.6760599238
  N        18.0241406421       16.9897964302        4.8465870734
  C        18.1897999957       16.7747031007        2.5174700920
  C        18.6806472398       14.5399688458        1.5833296312
  H        18.4961272915       12.8188546083        2.9687310933
  C        13.6335565440       14.1984079402       11.9848483770
  C        16.1929040792       14.1501547957       12.7970877055
  C        14.4902937475       11.5901808694       14.0415326342
  C        14.2356496465       10.2032415607       14.0702972616
  H        11.8919583799        8.9697635855        2.9540478837
  H        11.9949172250       10.6883630163        2.4874997971
  C        13.2562751410        9.4297097868        1.3503126126
  S        17.9024041087       18.4846348081        4.1799224797
  N        18.1346379922       18.1952985377        2.6022892769
  C        18.4243265254       15.9836746623        1.3507505073
  H        18.8112107397       13.9283850538        0.7508227710
  H        13.8311466159       15.0429672274       11.3317842946
  H        13.3783139451       14.6433699731       12.9329158970
  C        12.4116456234       13.3832177531       11.6864902317
  H        16.4502625676       14.8952623328       12.1112277914
  H        15.7920188343       14.6346942804       13.6977885595
  C        17.4089022829       13.3269880375       13.3209093018
  H        14.3284362275       12.3548045350       14.7906295080
  C        13.7863402086        9.5810911823       15.3902264688
  H        13.7151920721        8.4308692669        1.3574099014
  H        14.0436454288       10.1182434528        1.2655759024
  C        12.3929185077        9.5582650700        0.1268388393
  C        18.5965730873       16.6465971649        0.0284150733
  H        12.5961472414       12.7229980657       10.8943333522
  H        12.1987440066       12.6962858599       12.4519581694
  C        11.1439462935       14.1581237009       11.3718105599
  H        17.9092111864       12.6203310437       12.7440850084
  H        17.0346628430       12.8276311278       14.1276110205
  C        18.4667319816       14.1192454089       14.0674294036
  C        13.8322035367        8.1674505357       15.5987349835
  C        13.6092525995       10.3455603987       16.6322438996
  H        11.7200816265        8.6757379162        0.0203489273
  H        11.7997026907       10.4165595323        0.3782844869
  C        13.2734163989        9.6216160390       -1.1424566979
  H        18.4408197331       17.7053086283       -0.0458027272
  C        18.9763346210       16.2316137537       -1.2390474414
  H        11.5510619639       14.7857250119       10.5350153243
  H        10.8165098786       14.7866912172       12.1979702583
  C        10.0025456957       13.3064522634       10.8422358506
  H        18.6541902685       14.8989153718       13.3300843867
  H        17.9948933980       14.7315154415       14.9266265184
  C        19.7298354648       13.2625151804       14.5051036812
  N        13.9841718933        7.2645165082       14.5272314834
  C        13.4565180545        7.5080504297       16.7670682556
  C        13.3267205648        9.7034638395       17.8344793528
  H        13.7788684336       11.4277907878       16.5475620389
  H        13.9435137977        8.7653024892       -1.3433521428
  H        13.9971613021       10.4866659563       -1.0198427785
  H        12.6064993018        9.8473774696       -2.0147939208
  S        19.2872265634       14.5925774464       -1.6719609032
  C        19.1697501104       17.2194012077       -2.3074622353
  H        10.1767815493       12.9644001945        9.8791297546
  H         9.7915502131       12.4084991413       11.4550714840
  C         8.8101704148       14.0853418565       10.6924426334
  H        19.8187276521       12.4371516827       13.7023532028
  H        19.4770391366       12.7809063630       15.4454654981
  C        21.0200802724       14.0695889991       14.4914261472
  S        13.7851187728        5.7392837413       15.1027022872
  N        13.4862567133        6.0859158743       16.6694750705
  C        13.1207376648        8.2090636855       18.0058233485
  H        13.1590604486       10.4243118008       18.6310254380
  C        19.5226107655       15.2730227303       -3.2871941775
  N        19.5209604364       16.6354169578       -3.4399557705
  O        19.2626948268       18.4668085735       -2.1560369907
  H         8.4538706346       14.3135551029       11.6602154304
  H         9.0766630139       14.9686289707       10.1681350401
  C         7.6989498253       13.4165952061        9.8424208043
  H        21.7516341111       13.4037851368       14.7329924034
  H        21.2432028739       14.4237159014       13.4574943333
  C        21.0272162086       15.3104575555       15.4306050325
  C        12.7703031612        7.5234889054       19.2510561139
  S        19.9170761391       14.3549796539       -4.7360184352
  C        19.6930441575       17.2124292577       -4.7308397214
  H         8.0434893144       13.0358882142        8.8515643577
  H         7.2287468797       12.5928745932       10.4253178140
  C         6.4720353419       14.3382025348        9.4424255879
  H        20.9424621517       15.0210644574       16.4876789750
  H        20.1180071778       15.8791979052       15.1965164378
  C        22.2198030142       16.3228037937       15.2108029073
  H        12.8711653971        6.4459442513       19.0619337410
  C        12.0071039083        7.8311876111       20.3379884140
  H        20.3446795715       16.7032061090       -5.3472785527
  H        20.2506109551       18.0783468919       -4.6701413587
  C        18.3007056874       17.4084437712       -5.3330561681
  H         6.0852236819       14.0964019393        8.4855185112
  H         6.9414588591       15.3542184223        9.3834552385
  C         5.4929893164       14.2746646304       10.6575292012
  H        22.5363796636       16.7764145777       16.1916785033
  H        23.0175732653       15.8991047714       14.5670781038
  C        21.8603016235       17.5061043050       14.3977599314
  S        11.4034262977        9.3846769215       20.7241335447
  C        11.8254539105        6.7599609472       21.3357251784
  H        18.1164155886       18.1722025167       -6.0731866017
  H        17.5210138995       17.3394240495       -4.5850742473
  H        17.9210935713       16.5675832840       -5.9289972337
  H         5.8816406159       14.6371109555       11.5925795835
  H         4.5090604626       14.8262296320       10.5879391529
  H         5.0470741657       13.3260015070       10.8192378881
  H        22.6768674593       18.2443117986       14.2562202098
  H        21.4448949218       17.2578970939       13.4851936077
  H        20.9950965109       18.0496413566       14.7603165249
  C        10.9802463446        8.6861990328       22.2578277904
  N        11.0542318110        7.3038105929       22.3277674632
  O        12.3161852423        5.5943140957       21.2618162457
  S        10.2811940582        9.5496297112       23.6297841239
  C        10.9760853240        6.4961600553       23.5656878675
  H        10.5810958352        5.4369701314       23.2950147549
  H        10.1493603800        6.8703509475       24.2218886281
  C        12.3122547689        6.4063010592       24.3187654869
  H        12.1486448759        6.0009628184       25.2164613383
  H        12.7179631781        7.4109193319       24.5585021476
  H        13.1584327286        5.9695561969       23.7872749975
