352
 i =    95300, time =    95300.000, E =        25.1950627802
  H         9.6612709305        5.9419310801       31.8564244173
  C        10.3360517774        6.6802326816       32.0618812575
  H         9.8591557860        7.5381186142       32.4824818534
  C        10.8501905659        7.0245894976       30.6524535257
  C        11.2929548433        6.1101895820       33.0577184634
  C        11.2068165309        5.8533671165       29.6957352481
  H        10.1628905607        7.6627876645       30.1313547432
  H        11.8224711841        7.5357553791       30.8932888803
  H        12.2492931128        6.3530245182       32.7436324736
  H        11.0052775126        6.5080253774       34.0443935187
  H        11.2319497657        5.0536119652       32.9840052644
  C        10.1114315382        5.4013870859       28.7915136157
  H        11.5548722566        4.9655358640       30.2150407442
  H        12.0868390029        6.0239536695       29.0397013514
  C        10.5104175664        5.6515441238       27.3522199981
  H         9.9387608375        4.3558327024       29.0263156751
  H         9.1548444712        5.9003139119       28.8781892860
  C         9.5406526008        5.1309275672       26.2708182810
  H        11.4615477280        5.1857692869       27.0118981962
  H        10.6446694225        6.7041459693       27.1472014606
  C         8.2047484308        5.8435147982       26.1638962591
  H         9.9624628409        5.2190574482       25.3181846264
  H         9.4462329483        4.0971411096       26.3439856956
  C         7.1728698274        4.9892413588       25.2945710478
  H         7.7491461623        5.9569444429       27.1226856394
  H         8.1897638146        6.8392196005       25.7969711961
  C         6.8440968473        3.6873449396       26.0320667534
  C         7.7613566805        4.3105721393       24.2027877484
  C         5.9308841104        5.7962231221       24.7215268949
  C         7.1150127173        2.5822101479       25.2472304006
  C         6.2887530867        3.3545511211       27.3040311110
  C         7.6879467630        2.9831850436       24.0810056071
  C         8.2888300639        5.0203515433       23.1429430493
  H         5.2802229535        5.2903648818       24.0408665978
  H         6.2426423593        6.5822064612       24.1151789449
  C         4.9409231074        6.2486544662       25.8253054215
  S         6.7061833901        1.1335363093       25.9827549669
  C         6.2091160733        2.0091272172       27.4114242169
  H         6.0680761950        4.1745951842       27.9609525371
  C         8.1199105962        2.4665732798       22.9026668747
  H         8.2722591657        6.1475096169       23.2243983526
  C         8.7077089688        4.5184814095       21.9876017477
  H         4.6882010219        5.4669801956       26.4763750029
  H         5.4224266898        7.0496265502       26.4644733177
  C         3.6906315237        6.9606658183       25.3446722811
  C         5.9369302443        1.3062026183       28.6787728102
  C         8.6517428106        3.1846037213       21.8198412191
  H         8.0781145839        1.3926705015       22.7161509351
  C         9.2766821706        4.9736978638       20.8161168683
  H         3.3208754350        6.4622922805       24.4287768392
  H         3.9602091093        7.9369753060       24.9897407030
  C         2.7191658697        7.0533070898       26.4633844036
  C         6.0865028214       -0.0788762333       28.9448596316
  C         5.5820683556        2.1251876346       29.9059476940
  C         9.1493710607        2.5269355681       20.5911549355
  C         9.4636218830        3.9099602142       19.9688443909
  S         9.5539529170        6.5169702018       20.1120785524
  H         1.9075216397        7.6118875089       26.0857015767
  H         3.1403385365        7.5328074740       27.3309669228
  C         2.0281877743        5.7204251090       26.8934724080
  N         6.4363340045       -1.1071405632       28.0489464636
  C         5.8976279268       -0.5903750978       30.2121665374
  C         5.2328954015        1.5468255365       31.0974921460
  H         5.6256715666        3.2009958248       29.8697713159
  C         8.0943238223        1.8339145280       19.7587250811
  C        10.4965208326        1.7325842006       20.8073773756
  C         9.9306744171        4.3478747060       18.6974824740
  C         9.8353373760        5.7189814399       18.5826139684
  H         1.2127056723        5.5565417216       26.1658640101
  H         2.7550714315        4.9294430747       26.7569072820
  C         1.3543270961        5.7405965727       28.2429743232
  S         6.4641849631       -2.5625009448       28.8114394757
  N         6.1461331705       -1.9821750951       30.3085912542
  C         5.3889501080        0.1274005241       31.3302759435
  H         5.0197820169        2.1233433998       31.9444003911
  H         7.9149487724        0.9142725852       20.2343998828
  H         8.3622101969        1.3912091131       18.7939345196
  C         6.8524499112        2.6976175399       19.4761720072
  H        10.9365675694        1.5503073905       19.8277874489
  H        10.2706390968        0.8686031492       21.3745340734
  C        11.5816439904        2.6265676051       21.4697634510
  H        10.1060083869        3.6444342535       17.9150931155
  C        10.1097604689        6.4964353601       17.3061564423
  H         0.6797967375        4.8590828431       28.3321829495
  H         0.7518177980        6.6169130198       28.3643754677
  C         2.3561513456        5.5828503150       29.3658846834
  C         5.1506263143       -0.5075745318       32.5571027870
  H         7.1682320605        3.5255797936       18.8309128201
  H         6.4740731533        3.1151375292       20.3815204092
  C         5.7567618303        1.8704512978       18.8413697221
  H        11.2968867912        3.1829190547       22.3326950081
  H        11.9259356724        3.3236965084       20.7151848163
  C        12.9088839690        1.8362646818       21.9007194078
  C        10.2658329747        7.9161090716       17.2297910339
  C        10.2921814861        5.7709409060       16.0241427289
  H         2.7514909043        4.5849989530       29.2357490164
  H         3.2796474304        6.1711733347       29.0356237733
  C         1.9901368299        6.0321596354       30.7944892739
  H         5.1133203412       -1.5723865645       32.6141871475
  C         4.9525877190       -0.1044980925       33.8466516371
  H         5.5104395918        1.0322655988       19.4867812575
  H         6.0913111609        1.2664260528       17.9823903325
  C         4.4804219863        2.5513681407       18.3882143754
  H        12.5604906770        1.1740874928       22.6629062436
  H        13.3197942386        1.2311165800       21.1237042544
  C        13.9939028513        2.7255847995       22.4914121183
  N        10.1077853088        8.8154601226       18.2444398506
  C        10.5675216985        8.5171166934       16.0475396885
  C        10.6181393782        6.3744348593       14.8608129145
  H        10.1952287368        4.7330924019       16.0416793774
  H         1.2456435569        5.4632845373       31.3574872113
  H         2.8112432259        5.9070901378       31.5173363602
  H         1.6456488686        7.0556692960       30.8994697462
  S         4.7366677322        1.5158408180       34.3765797474
  C         4.7450495166       -1.0882265576       34.9406270752
  H         4.3208804487        3.3049473479       19.1248830409
  H         4.5658331622        2.9230989994       17.4425331194
  C         3.2978646289        1.6245644690       18.4956694499
  H        13.6076364726        3.4074623932       23.2523612317
  H        14.4635947699        3.2895717505       21.7248128218
  C        15.2040271472        1.8525710918       22.9770660352
  S        10.0161273171       10.3620362384       17.6429017360
  N        10.6347053889        9.9290427978       16.1700459914
  C        10.7641947734        7.8833373030       14.8116042864
  H        10.8955638959        5.7092588467       14.0296179454
  C         4.4203998392        0.8992627519       36.0516047655
  N         4.5644298914       -0.4466298969       36.1241469228
  O         4.6317895323       -2.2806959266       34.7788347734
  H         2.5677562996        2.3328566150       18.0792589780
  H         3.0512417139        1.3299755758       19.4715147073
  C         3.4217101639        0.2967872658       17.7738529551
  H        14.8969150434        1.0761439238       23.7597865485
  H        15.6006494430        1.2978329108       22.1611017464
  C        16.2726248039        2.7588449339       23.6671766421
  C        11.2608547911        8.5928992374       13.6321429253
  S         4.2916856122        1.7398448557       37.6135188962
  C         4.3893773823       -1.1948108765       37.4607047158
  H         3.4504746492        0.5496850004       16.7014819272
  H         4.4405356837       -0.1573192582       17.8055537873
  C         2.3339644713       -0.7015723515       18.1007088349
  H        16.1053699259        2.9309534075       24.6801988220
  H        16.3005234779        3.7347738579       23.1988276070
  C        17.6775253785        2.1694967180       23.4777046719
  H        10.9565693769        9.6119239314       13.6412254814
  C        11.9342784965        8.2209440116       12.4676765315
  H         4.0264353014       -0.6167654398       38.2699901270
  H         3.5880626985       -1.9335720389       37.5052077818
  C         5.7225600124       -1.8079928035       37.7428517924
  H         1.5408871376       -0.0724803646       18.2923482512
  H         2.6962242459       -1.1608409799       19.0236258980
  C         2.0498900240       -1.5687254404       16.8951226086
  H        18.3557523732        2.6600092459       24.2160476409
  H        17.8268517654        1.1489274408       23.6870404044
  C        18.2385388265        2.3957317742       22.1276537199
  S        12.5597958539        6.6257907434       12.0333044861
  C        12.0315145343        9.2356711978       11.4268985216
  H         5.4359765041       -2.6572711276       38.4196875943
  H         6.3204734845       -2.2140313369       36.8972665168
  H         6.3899190070       -1.0833129814       38.3018549562
  H         1.1477063234       -2.1249805323       17.1421408676
  H         2.8066460442       -2.2927603501       16.8132542886
  H         1.8785824987       -0.9487569718       16.0120793408
  H        19.3201054253        2.2318168780       22.0492458769
  H        18.1329954279        3.4186231118       21.7347166264
  H        17.8115570419        1.7777875384       21.3866430794
  C        12.9874366499        7.3612425363       10.4416212151
  N        12.7443383920        8.6903479783       10.4018231820
  O        11.6736301797       10.4078461432       11.5434840360
  S        13.8384544628        6.5784056939        9.0800820912
  C        12.9447166053        9.4510925177        9.1357267871
  H        12.8854348094       10.5091180307        9.3903110117
  H        13.7738483978        9.1937926204        8.6254220571
  C        11.7782737175        9.0504937428        8.2039604046
  H        11.5537703393        9.8525714210        7.4860900217
  H        12.0557302186        8.2510375738        7.5265914294
  H        10.8638813483        8.8098608599        8.7742980095
  H        22.1774370981       10.8132248433        3.0907903301
  C        22.9139078036       10.1624693381        3.4591566155
  H        22.3946195925        9.2328399681        3.2933182763
  C        23.2037396233       10.4205670946        4.9283515658
  C        24.2245518476       10.2183717409        2.6757868999
  C        21.9672302971       10.3041644554        5.7760407768
  H        23.9905101374        9.7449827267        5.2255429370
  H        23.5581226622       11.4232817879        5.0297838982
  H        24.8743859187        9.3090687216        2.9264765738
  H        24.7272671525       11.1843302717        2.8988101515
  H        24.1279544032       10.2171555514        1.5865338891
  C        21.4679960147        8.8418710898        6.1544157044
  H        22.1613058060       10.8528453352        6.7080532782
  H        21.2253396688       10.9251778510        5.3104134759
  C        20.2587366206        8.7788603346        7.1043090073
  H        22.2792293516        8.3074699986        6.6521718469
  H        21.2728421274        8.3230710827        5.2436101335
  C        18.9907859099        9.4288184189        6.4800620663
  H        20.6155880030        9.3972003329        7.9704154362
  H        20.0936014309        7.8473308967        7.5851228241
  C        17.9612526539        9.7436033333        7.5863225083
  H        19.2731480978       10.2952158302        5.9676368651
  H        18.5569328363        8.5797112436        5.9081482196
  C        16.8308979330       10.7474749961        7.1277043136
  H        18.5956903525       10.2124194495        8.3784403385
  H        17.3778733469        8.7964093911        7.8561142265
  C        17.3242842759       12.0557162667        6.4768531296
  C        16.3653366824       11.4753990027        8.3221543267
  C        15.7226676018       10.1055853268        6.3394932809
  C        16.9669145992       13.1904037927        7.1521564611
  C        17.9120860547       12.4273160732        5.2273849206
  C        16.3917546603       12.8344002271        8.3763308909
  C        16.0812921911       10.8105610865        9.4898764069
  H        16.1695176030        9.5872136432        5.5440177955
  H        15.3562879576        9.2584087516        6.9350701588
  C        14.5729009029       11.0614280722        5.9529168988
  S        17.3760096855       14.6870110284        6.3530580040
  C        17.9680863628       13.7694545307        4.9712922379
  H        18.2962412632       11.6842271571        4.4753658431
  C        16.0332369373       13.4763593870        9.5353552906
  H        15.8817836729        9.7798720606        9.6093981119
  C        15.7793285803       11.4894312541       10.6862569241
  H        15.1001114331       11.9370617809        5.5154611359
  H        14.0198479274       11.3802766401        6.7536186591
  C        13.5522850054       10.5965115032        4.9493370339
  C        18.3615510118       14.3510614287        3.6277390972
  C        15.7077125189       12.8410874720       10.7477056457
  H        16.0527333170       14.5538953646        9.5308725122
  C        15.3157948985       11.1578936538       11.9797898596
  H        12.7216828551       11.3187163651        4.8841383897
  H        13.1108489506        9.6747555421        5.3239870161
  C        14.1895540273       10.3582174207        3.6355552902
  C        18.5898385322       15.7078405691        3.3902357913
  C        18.6800581244       13.4224500667        2.4812352153
  C        15.4682504280       13.5792952148       12.1622188766
  C        15.2158168134       12.2429464643       12.8535322657
  S        15.0247207306        9.6253262432       12.8455084813
  H        14.6583222381        9.4035324917        3.7781276295
  H        14.9993058655       11.0638973630        3.3816844662
  C        13.1160631482       10.3725518090        2.5735519015
  N        18.4204016092       16.6552358298        4.3851679186
  C        18.8604101623       16.2298609709        2.1741884041
  C        19.0002791343       13.9741935557        1.2456890923
  H        18.6428551842       12.3422064644        2.5174808848
  C        14.3145370438       14.6093401102       11.9795527768
  C        16.8249981673       14.1607988703       12.7851873294
  C        14.9526420365       11.8145430141       14.1316210283
  C        14.8465653970       10.4294360923       14.3297018422
  H        12.2625530919        9.9030653950        3.0008345628
  H        12.8748072198       11.4426956730        2.4125815774
  C        13.4515756740        9.6339550664        1.2511722428
  S        18.3420300694       18.1268527018        3.6959743908
  N        18.7671579185       17.6503826930        2.1708177723
  C        19.0833433197       15.4040510247        1.0061754688
  H        19.0418020059       13.3179376997        0.3722560371
  H        14.6605768269       15.3333974847       11.1362730745
  H        14.1359076313       15.2721722028       12.8940558191
  C        13.0295441863       13.8877307871       11.6278462035
  H        17.1507594612       15.0298663110       12.3011277602
  H        16.6063125209       14.4431304622       13.7910766266
  C        18.0713080436       13.2336746986       12.7000861802
  H        14.7733163514       12.6220250197       14.8353766285
  C        14.5115341134        9.6920372256       15.5945091555
  H        13.6218794461        8.6321484577        1.5252111727
  H        14.4208918901       10.0504945220        1.0061158952
  C        12.5211818083        9.9293561905        0.1139335733
  C        19.4023019150       15.9977930792       -0.2511580426
  H        13.1672619901       12.9728182631       11.0159431699
  H        12.5289625272       13.4311479180       12.4641728330
  C        12.0600399131       14.8517874216       10.8859795637
  H        18.5060715220       13.0850794162       11.7314991914
  H        17.7413859554       12.2133834153       12.8968440304
  C        19.1508675011       13.5803193397       13.7406771607
  C        14.2922180392        8.2798358090       15.6027280610
  C        14.1261159235       10.4436048780       16.8213502980
  H        12.0629843684        8.9509039307       -0.2542364053
  H        11.6396456132       10.4361518957        0.4849575153
  C        13.2004206534       10.6622979620       -1.0404093626
  H        19.3979153207       17.0677999733       -0.1852727065
  C        19.5896817090       15.5200562969       -1.5111264305
  H        12.6388038699       15.4217563306       10.1979310615
  H        11.8094179236       15.5166386904       11.6346476801
  C        10.9525710784       14.1532359591       10.1274155810
  H        18.6593802826       13.7581942294       14.7245802094
  H        19.7663973380       12.6983225965       13.6917209065
  C        20.0201271107       14.7151327245       13.3238344155
  N        14.6679036047        7.2944632341       14.6286462337
  C        13.9135681775        7.6451263788       16.8021260654
  C        13.6157850748        9.8231690797       17.9614200635
  H        14.1112214232       11.5086278720       16.8594870790
  H        14.0034745044       11.3864920156       -0.7726732431
  H        12.4069117683       11.2974078783       -1.4020209484
  H        13.4157944076       10.1479751786       -2.0083796212
  S        19.8517939642       13.9342623120       -1.9569610003
  C        19.5471049047       16.5562328528       -2.5509584823
  H        10.4123825270       14.8830764361        9.5358940050
  H        11.3437110228       13.3973582250        9.4627736208
  C        10.0019766399       13.4514866329       11.0305322220
  H        19.3753030319       15.5982453092       13.4417657539
  H        20.2229445802       14.7457457146       12.2718715520
  C        21.3547431440       14.8277249814       14.2142043238
  S        14.0976565306        5.8705265008       15.1201191046
  N        13.9487734731        6.2713821108       16.6581823651
  C        13.5116217335        8.2955573692       18.0246704564
  H        13.5585856263       10.5103867239       18.8226945575
  C        19.9971402551       14.6204685818       -3.5666747375
  N        19.9357346312       15.9756175626       -3.6632387910
  O        19.3211597960       17.7670848554       -2.4396612374
  H         9.8968457997       12.4227559191       10.8899762198
  H        10.3992185513       13.5214666152       12.0614417203
  C         8.5756448690       14.0131448163       11.0934616485
  H        21.1041971346       14.9956860750       15.2707520228
  H        21.8644956598       13.8556538851       14.1268120585
  C        22.2881544319       15.9496808316       13.6736076714
  C        13.2039065232        7.5862964828       19.2558095875
  S        20.5547706882       13.7442426094       -4.9836093716
  C        20.0857486423       16.7428059963       -4.8716072928
  H         8.3060702938       13.8085892963       12.2102287141
  H         8.5686449969       15.0449715369       10.9542026121
  C         7.5376277238       13.2973901094       10.2184025305
  H        22.2941331414       15.7765833594       12.6156762183
  H        23.3519847784       15.7599571100       13.8250091003
  C        21.9028839464       17.4166599434       14.0523907352
  H        13.4045159701        6.5914646264       19.1811810884
  C        12.6747279693        7.9350808380       20.4330557429
  H        20.9399693859       16.3702132434       -5.4935238188
  H        20.3442078688       17.7239989836       -4.6385764219
  C        18.6989554215       16.7185933864       -5.6324482579
  H         6.8372914308       12.7729603240       10.8216945028
  H         8.0462562681       12.4720461019        9.7520436567
  C         6.8025373670       14.2589122952        9.2068303026
  H        22.8487164404       17.9578933260       13.9073713573
  H        21.3521448248       17.7568924189       13.1754153283
  C        21.1534096931       17.7356248890       15.2837570814
  S        12.1079534452        9.5184614731       20.8930596704
  C        12.4574211705        6.9055425377       21.4946259735
  H        17.8706054419       16.3715242912       -4.9595573651
  H        18.7228019517       16.1182619141       -6.5027180658
  H        18.4518630208       17.7349565904       -5.8519015952
  H         5.7318951383       14.0886037302        9.1044552103
  H         6.9486105165       15.2846364530        9.4790657555
  H         7.2517729889       14.3596440372        8.2679462428
  H        21.0045093737       18.7848245236       15.4584416175
  H        20.1651588543       17.2928465307       15.2202849850
  H        21.6510316408       17.3280616006       16.1737182205
  C        11.7987452020        8.8565512177       22.5257660095
  N        11.9379235545        7.4769062239       22.6072472993
  O        12.8183761726        5.7604173886       21.4131263256
  S        11.3014542800        9.8157800850       23.8452046528
  C        11.7379437290        6.7903215510       23.8527286367
  H        11.2704056305        5.7892197662       23.6435165844
  H        11.0774230040        7.2464304467       24.6171891111
  C        13.0268713340        6.6591308233       24.5594099928
  H        13.6776159777        5.8417425627       24.2390115228
  H        12.8675962402        6.4227956758       25.5853802352
  H        13.5935383534        7.5728783852       24.4934105226
