352
 i =    17100, time =    17100.000, E =        24.6009336597
  H        11.4070957484        7.1285368577       32.0844433703
  C        11.3062584936        6.0310621625       32.1638340845
  H        12.3380726619        5.7150906906       32.1339622845
  C        10.4771536529        5.4551914744       31.0016370037
  C        10.6305242284        5.7529212893       33.5046272901
  C        11.0407205696        5.7184404731       29.6410854967
  H        10.3902774389        4.4339451540       31.2217721466
  H         9.4907288014        5.9764801647       31.0555007635
  H        11.3582048654        6.0311580579       34.3230457815
  H         9.7089818751        6.3886778805       33.6050171874
  H        10.4810236499        4.6543284312       33.6006586647
  C         9.9252124719        5.5585613162       28.5972790989
  H        11.9451617359        5.0811998091       29.4993123113
  H        11.3149567150        6.7447533419       29.6397548718
  C        10.5257497813        5.8358092054       27.2793888961
  H         9.6146879289        4.4880214256       28.4599107349
  H         9.1216317325        6.2706230660       28.7571085828
  C         9.6475798239        5.3639088014       26.0383309468
  H        11.4993370698        5.3627971568       27.1967673901
  H        10.8210721968        6.8989545877       27.2420082651
  C         8.3291385124        6.1308953308       25.7641398204
  H        10.3078232458        5.4620336030       25.1915298039
  H         9.4935130322        4.3418215416       26.2407008917
  C         7.1522928366        5.3180945190       25.1517508583
  H         8.0659614010        6.7255933097       26.6334314846
  H         8.4232489798        6.9882104295       25.0751820693
  C         6.9825826335        4.0330825894       25.8711585694
  C         7.6864280901        4.5895141730       23.9518928553
  C         5.8720641026        6.1949826626       25.0215578486
  C         7.2452898022        2.8978758316       25.0994972712
  C         6.5513592943        3.6663944280       27.1816589147
  C         7.6968068374        3.2662555778       23.8834430602
  C         8.1168965017        5.2393665215       22.8017518740
  H         6.0772464519        6.9561258799       24.3208012621
  H         5.8025188425        6.6971618364       25.9753165414
  C         4.5874390864        5.4586070063       24.7357339569
  S         6.9420003342        1.3860592485       25.9757316721
  C         6.3848808565        2.2959910388       27.3432393891
  H         6.4558185353        4.4550631214       27.9205384118
  C         8.0148154448        2.6146233185       22.7554914089
  H         8.0079817549        6.3455452061       22.7903949886
  C         8.5311373042        4.6067813235       21.6541240086
  H         4.6527752443        5.1201408294       23.7054536042
  H         4.5311228387        4.4398859479       25.2528397583
  C         3.3629497264        6.3154037440       24.8789752032
  C         6.0106035173        1.5894077159       28.5999872827
  C         8.5006653355        3.2639127686       21.6311956357
  H         7.8547783302        1.5538258963       22.7139396312
  C         9.0802486523        4.9566592563       20.3940454778
  H         2.6522432230        6.0059546710       24.0843239795
  H         3.5461921259        7.3456684625       24.5330020218
  C         2.7433273679        6.3939820091       26.2452181617
  C         6.0427531107        0.1926580098       28.8538532375
  C         5.5258098240        2.4732654203       29.7102596658
  C         9.0001692751        2.5032034301       20.3553561492
  C         9.3579621961        3.8029578349       19.6545913359
  S         9.3494603808        6.4553816218       19.5628039308
  H         2.2948147061        7.4068753065       26.3011278611
  H         3.5993803630        6.3942644661       26.9161760342
  C         1.9016418479        5.1544613397       26.6390890771
  N         6.2512328348       -0.8172893240       27.9134223245
  C         5.6898938322       -0.3529431736       30.0361977898
  C         5.1488342682        1.9069763201       30.9369820773
  H         5.6107215686        3.5329599740       29.7031288040
  C         7.8318853842        1.7070085005       19.6788932351
  C        10.2605959847        1.7307098343       20.5408785269
  C         9.9266612804        4.2167401618       18.4110636667
  C         9.9204013805        5.5889810881       18.1977089017
  H         1.0883278203        5.0710522170       25.9285952258
  H         2.6977787669        4.4103985697       26.5226114610
  C         1.4967651920        5.3240698310       28.1339361664
  S         6.1014527106       -2.2637527008       28.6605654377
  N         5.8343189986       -1.7125309513       30.1260265056
  C         5.2431720291        0.4364133326       31.1384742078
  H         4.7601154101        2.5473079974       31.7603095268
  H         7.6570075291        0.8112313558       20.2862393813
  H         8.2699119516        1.4569433392       18.6860138269
  C         6.5811882200        2.5653370157       19.2961376475
  H        10.6666153199        1.6408953669       19.5134637544
  H        10.0403325825        0.7579031571       21.0262819074
  C        11.3385975996        2.4400093072       21.3044142804
  H        10.1724472481        3.4466267037       17.6001135267
  C        10.1905070867        6.3353044402       16.9022575294
  H         0.6562263145        4.5615824553       28.4282109322
  H         0.9185633394        6.2582691409       28.1911442244
  C         2.6563174956        5.1682378316       29.1253034547
  C         4.8414385571       -0.2447309301       32.2994412738
  H         6.9005584373        3.3995827246       18.6179795289
  H         6.1433186793        2.9717061742       20.2134603708
  C         5.4178996785        1.8160562682       18.6626578049
  H        11.1237098336        2.4916465371       22.3459322715
  H        11.5381694024        3.4918926371       21.0519108370
  C        12.6257216897        1.6642844328       21.0494977271
  C        10.1056363267        7.7632631768       16.6677602353
  C        10.3095606731        5.5367952355       15.5470587271
  H         2.9497041544        4.1676530071       28.8928773721
  H         3.4888112437        5.7486893890       29.0803395899
  C         2.1230064751        5.1541773994       30.5674915596
  H         4.6296678230       -1.2730983024       32.2197119386
  C         4.6566977354        0.1275146297       33.6624499773
  H         4.7362989770        1.3822739609       19.3891550501
  H         5.7058991197        0.9454250091       18.0889444949
  C         4.5578424621        2.6480270265       17.6726840514
  H        12.6623430107        0.9918444593       21.9233617736
  H        12.6554385444        1.1034422705       20.1428232217
  C        13.8318903675        2.6032448755       21.1815381590
  N         9.8825453721        8.6845135138       17.6906463849
  C        10.3227866387        8.3628530760       15.4607455306
  C        10.5163668514        6.1681817019       14.3346478325
  H        10.1248418121        4.4408330510       15.5869120280
  H         1.4488447517        5.9991802146       30.7747002655
  H         1.4778900673        4.2429517593       30.6880679931
  H         2.8944305543        5.0019600067       31.3014328753
  S         4.6166720697        1.7499169609       34.1919068411
  C         4.4565811917       -0.9478827492       34.6540047743
  H         4.6765004400        3.6329056988       17.9629306800
  H         4.9005333711        2.5221726599       16.6910720445
  C         3.0508002998        2.2512817471       17.7986361168
  H        13.6406652313        3.4923135608       20.7009926995
  H        14.7586625998        2.2303179829       20.7138053602
  C        14.1859543128        2.8527422749       22.6908022652
  S        10.0500825298       10.2061912297       17.0805344244
  N        10.2133600127        9.7573767716       15.4869972497
  C        10.6602268645        7.6723852792       14.2717150684
  H        10.6290555113        5.4674090662       13.4965020528
  C         4.1561908479        1.0110369662       35.6863450922
  N         4.2107944702       -0.3666092461       35.8295471839
  O         4.3457737250       -2.1548973551       34.3590390772
  H         2.5415409004        2.9610625733       17.1965160768
  H         2.7207765041        2.4614545560       18.8361795712
  C         2.8012832911        0.7832483718       17.2736681734
  H        14.8757289524        3.7286794253       22.7578188691
  H        13.3210330751        3.0347289823       23.2605628270
  C        14.9104489888        1.7120708590       23.4038049779
  C        10.7882450130        8.3949505323       13.0890560334
  S         3.8323255377        1.9326723621       37.1451042812
  C         4.0631742200       -1.0143756301       37.1487791974
  H         2.0346447622        0.7424523613       16.5541644297
  H         3.7412978064        0.3601389800       16.8673837241
  C         2.3755631991       -0.0723811746       18.3578173491
  H        14.9027820017        0.8529782815       22.7811871528
  H        14.2628400006        1.5885267505       24.2857415948
  C        16.3085883001        2.0796162416       23.8058606187
  H        10.4369293416        9.4145446818       13.1602892884
  C        11.3277460217        8.0719880529       11.8645101712
  H         3.1461607901       -0.6333985390       37.6023843142
  H         3.8873386945       -2.0734579300       37.0477159618
  C         5.2286482577       -0.9141975550       38.0830490162
  H         1.6691896179        0.3954771361       18.9149617410
  H         3.1812028029       -0.2334597332       19.0105074542
  C         1.8078842248       -1.3537614495       17.9160543168
  H        16.3044919078        3.0470709454       24.2784904533
  H        16.7056714697        1.4321367157       24.4890984609
  C        17.2387817940        2.0145918293       22.6201037759
  S        12.0993389661        6.5858139680       11.5413639864
  C        11.2518393837        9.0943906307       10.8108877681
  H         6.1797176916       -0.8592613123       37.4570421439
  H         5.2202446278        0.0115825302       38.6905484992
  H         5.1885907252       -1.6692613485       38.7907026403
  H         0.8125461053       -1.6395032627       18.4524828576
  H         2.5520290757       -2.1205599428       17.9802544046
  H         1.4732768656       -1.4191900735       16.8221158101
  H        18.3009385606        1.7675446850       22.9229334910
  H        17.2736812408        2.8992325589       22.0028550451
  H        17.0122846381        1.1948954508       21.9209004087
  C        12.6056883215        7.3931733132       10.0054523020
  N        12.0884838513        8.6259663304        9.8528878739
  O        10.7060406067       10.1956785550       10.8397276347
  S        13.5528926831        6.6546140806        8.7751969157
  C        12.3480356757        9.4029674924        8.6327485185
  H        12.2482989753       10.4533282214        8.9953103706
  H        13.3872267798        9.2519372601        8.3676517239
  C        11.4043231091        9.0728868548        7.4855682916
  H        10.3611292714        9.2373419134        7.7593453818
  H        11.6695727901        9.7403843086        6.6383134177
  H        11.5264228359        8.0897319150        7.2108464476
  H        20.8937332090       11.4036931479        3.5778931172
  C        21.6096061779       10.6095019324        3.5672023403
  H        20.8871063754        9.7553348922        3.6475184180
  C        22.5666188485       10.8176862503        4.8092863257
  C        22.3480479248       10.5204858067        2.1991273529
  C        21.7631230333       11.0577334706        6.0753613315
  H        23.2728404634        9.9860012367        4.7535713652
  H        23.0899924210       11.7041334414        4.6597946883
  H        21.7114577123       10.2236757864        1.4329967125
  H        23.1421475566        9.8289577218        2.3936462597
  H        22.9579502485       11.3439699039        1.9471567599
  C        21.0221241670        9.7929277941        6.5449959853
  H        22.5408419355       11.3498555931        6.8022005173
  H        21.0225359145       11.9167327919        6.0299661251
  C        20.1467095658        9.8681482912        7.7888451786
  H        21.7842846548        9.0228917225        6.7097295689
  H        20.4554974822        9.4014296249        5.7076748990
  C        18.9031484435       10.7102399938        7.5474684571
  H        20.6559826799       10.3443506668        8.6128466713
  H        19.9694718788        8.8248892546        8.0851595464
  C        17.7556967905       10.0134537330        6.7211031617
  H        18.5459418364       11.0797894078        8.5098596847
  H        19.2705640904       11.6386373282        7.1018857721
  C        16.4655568834       10.8904642329        6.6056290220
  H        17.5280350442        9.0810152581        7.1594073706
  H        18.2433956486        9.8354603086        5.7092795678
  C        16.7947541282       12.2361280183        6.0549994765
  C        15.9801953923       11.6361674767        7.8937056142
  C        15.3127509684       10.1729230789        5.8235673734
  C        16.5819642042       13.3673950521        6.8559436452
  C        17.3237227512       12.6136381974        4.8174987327
  C        16.0212300259       12.9406507367        8.0344855702
  C        15.4832390031       10.9607494330        8.9958559243
  H        15.7888326297        9.8075441325        4.8221221495
  H        14.8597215419        9.3735809679        6.4157316461
  C        14.1537062944       10.9617115078        5.3459598474
  S        17.1320528305       14.8464876051        6.1461655172
  C        17.6402358648       13.9497676860        4.7672346653
  H        17.5270953487       11.8610430774        4.0826687374
  C        15.5723003616       13.5747750290        9.1879955182
  H        15.5282256368        9.8826804377        8.8210181744
  C        15.1030656919       11.5429500844       10.1634144856
  H        14.4474130272       11.9641086870        4.8941046027
  H        13.6706462739       11.2676942244        6.1499925718
  C        13.1674984041       10.2643636178        4.3117583001
  C        18.0836214527       14.6808186026        3.5274012301
  C        15.0843892082       12.8747395299       10.2666774297
  H        15.7299015784       14.6037940219        9.3150744902
  C        14.5743712939       11.1151580510       11.3493023397
  H        12.1693563749       10.6329817651        4.4056142030
  H        13.1859896482        9.1729593093        4.4089884399
  C        13.7342723116       10.4248627041        2.8628506485
  C        18.2252766380       16.0656729339        3.2856584957
  C        18.4510762966       13.8706741146        2.3889187404
  C        14.5950687730       13.5357523711       11.4998625536
  C        14.4019900949       12.2052157713       12.2145573154
  S        14.3292046330        9.6163187735       12.1634598422
  H        14.7694697016        9.9835627359        2.7413894451
  H        13.7149292426       11.4321393427        2.4540928731
  C        12.8885836543        9.6909750518        1.8296958847
  N        18.0078460322       17.0092663149        4.2839781886
  C        18.3973580241       16.5818759120        2.0150596700
  C        18.7504044087       14.4439342476        1.1550880694
  H        18.5001562976       12.8099529285        2.4959520161
  C        13.3105342176       14.2651376684       11.1210321958
  C        15.5572604066       14.4307655592       12.2752715440
  C        14.0257502729       11.8048925983       13.5301115152
  C        14.0194916603       10.4686876804       13.6255129835
  H        13.1116685660        8.6354083464        1.9642872709
  H        11.8691203613        9.9106442157        2.1072271139
  C        13.3664073314       10.0257582136        0.3721462722
  S        18.0800429664       18.5106088616        3.6459193932
  N        18.3454728610       18.0047973674        2.1242470805
  C        18.5849372968       15.8318291041        0.8622854723
  H        18.8871600822       13.8064862571        0.2514597558
  H        13.4911382114       14.7753562033       10.1774946839
  H        13.1125482932       15.0507819750       11.8581781280
  C        12.0085415067       13.4375730763       11.1321585781
  H        15.6667488880       15.3824058563       11.7114906374
  H        15.0034565837       14.7198505775       13.1787825982
  C        16.8584152301       13.7970783301       12.6467854116
  H        14.0584316668       12.5506550697       14.3229377573
  C        13.8449789616        9.7765563462       14.9545866900
  H        14.3677789569        9.6018988039        0.2527247035
  H        13.6105369584       11.1309018753        0.2518651791
  C        12.3759028295        9.3673524247       -0.5828473970
  C        18.7582762134       16.4652019732       -0.4475228164
  H        12.0351541421       12.6438231198       10.4262916508
  H        11.9719088977       13.0888430597       12.1473830136
  C        10.8484645368       14.3550053509       10.9197461143
  H        17.3741470868       13.0220149520       12.1056347345
  H        16.6803061893       13.1821775231       13.5365471930
  C        17.7750630414       14.8011160608       13.2751984377
  C        13.8189768291        8.3966192317       15.1170702436
  C        13.7074685274       10.5960456256       16.2368958332
  H        12.8894999793        8.4718711816       -0.9785426212
  H        11.5015416874        9.0034116378       -0.0620866529
  C        11.9721884808       10.1241164582       -1.8107612501
  H        18.5567210525       17.5387716996       -0.4080228030
  C        19.0644395824       16.0146729512       -1.7069906285
  H        11.1197475879       15.2013260255       10.3039362546
  H        10.4534071497       14.6930878529       11.8950363747
  C         9.5510514310       13.5952514495       10.4653059411
  H        17.9596622748       15.6135704167       12.5117366942
  H        17.3587077013       15.2305391082       14.2528873491
  C        19.1469753509       14.1474928775       13.6165944207
  N        13.8900637979        7.4319982836       14.0861233909
  C        13.5091191763        7.7866786106       16.3468156101
  C        13.4930259206       10.0218002625       17.4790100346
  H        13.6188423083       11.6729886821       16.2100493571
  H        11.4100718277        9.4669949963       -2.4383520349
  H        12.8484133426       10.3217420405       -2.3839563997
  H        11.4132057302       11.0523005397       -1.6826264062
  S        19.6266968056       14.3830829700       -2.0974681864
  C        19.1758717276       16.9850933593       -2.8266975814
  H         9.6982524258       12.5230671737       10.2085024721
  H         8.8430801796       13.5008707884       11.3243590147
  C         8.9760281126       14.1329991308        9.1603749103
  H        19.6804772808       13.7730949849       12.7697634899
  H        19.0180177566       13.2199814883       14.1829049160
  C        20.1026889121       15.1266696023       14.2736646012
  S        13.7815815260        5.9473042063       14.7336749238
  N        13.5057467309        6.3442059723       16.2581479765
  C        13.3369166568        8.5636573086       17.5718680169
  H        13.3469850475       10.6334574356       18.3698163612
  C        19.7236606956       14.9170323168       -3.7128427044
  N        19.4062544748       16.2151531747       -3.8735535167
  O        18.8038323808       18.1516941905       -2.8215410841
  H         9.0232193537       15.2253017223        9.1399522411
  H         9.6493857767       13.8628226713        8.3300248115
  C         7.5273678296       13.5790516305        8.9200081968
  H        19.5906835317       15.7589444699       14.9761564165
  H        20.8613287220       14.6151577716       14.7987480038
  C        20.7526558040       16.0048890210       13.2567809337
  C        12.9390910261        7.8833334155       18.7662734038
  S        20.0754111429       13.7602502415       -5.0231033502
  C        19.2941966688       16.8295192129       -5.1917418618
  H         7.4402850154       13.3910097277        7.8418177972
  H         7.4335594455       12.6118311820        9.4316138414
  C         6.3386314149       14.4360445004        9.3818744137
  H        19.9324364444       16.5909608271       12.7751380375
  H        21.2440900440       15.4844894885       12.3927154863
  C        21.7802248532       16.9300278637       13.9662822556
  H        13.0886856354        6.8099790469       18.7459337155
  C        12.2723852727        8.3447288201       19.9398084116
  H        19.8123859718       16.0843024285       -5.9075194988
  H        19.8156009695       17.8194727346       -5.2047035303
  C        17.8337207094       17.0123414498       -5.7123580379
  H         5.8194157245       14.7115512692        8.4610803103
  H         6.7104825044       15.3467139603        9.7756940741
  C         5.4292770774       13.6547683595       10.3278353074
  H        22.5055302304       16.3753197523       14.5625473213
  H        22.4671221672       17.2293098368       13.1786881682
  C        21.2851616136       18.0905729429       14.8497670922
  S        11.6422722836        9.8907805080       20.2414637473
  C        12.2047502426        7.4051749045       21.0654066978
  H        17.4212817241       18.0725681363       -5.6172845640
  H        17.2084956605       16.3668790081       -5.0462004341
  H        17.7894340100       16.6365748384       -6.7721322027
  H         4.7396160913       13.0196911965        9.7265037746
  H         6.0736368170       13.0021258683       10.8879762326
  H         4.7983342656       14.1490761196       10.9822174462
  H        22.0765012184       18.7825339585       15.1699003343
  H        20.4828649229       18.6742926987       14.3607453449
  H        20.9599296600       17.8170515379       15.8599927601
  C        11.5740663185        9.4421637219       21.9222861094
  N        11.7779057465        8.1302609594       22.1237961244
  O        12.5386380481        6.2063949420       21.0910958542
  S        10.7449158146       10.3792491197       23.1592073514
  C        11.6436436066        7.4367601454       23.3610632747
  H        11.6234968213        6.3746610852       23.2412427173
  H        10.6919323226        7.6963521437       23.8461151836
  C        12.7840501947        7.6469775679       24.3306446535
  H        13.7509225449        7.4273385591       23.8774345373
  H        12.6840674048        7.1723792119       25.3627857030
  H        12.7014216185        8.7353609020       24.5843752674
