352
 i =    93200, time =    93200.000, E =        25.2491789159
  H        10.5434129704        7.2834574604       31.4239299193
  C        11.4022872037        6.7284128359       31.7696338398
  H        12.0473464970        7.4202537033       32.3030939100
  C        12.1519912805        6.0565630499       30.6197278089
  C        10.9645554958        5.7817034280       32.9051912076
  C        11.3196163071        5.0957652048       29.8347979543
  H        12.7095089000        6.8461231184       30.0640652917
  H        12.9718783954        5.4669726966       31.0563769604
  H        11.6679051608        4.9576270544       32.8905470741
  H        11.0621263488        6.1408577818       33.9284918402
  H         9.9987295217        5.4201324347       32.7618300430
  C        10.1785324885        5.7788058197       29.0030203031
  H        10.7730008725        4.3675242489       30.4559560472
  H        11.8922629959        4.5107313817       29.1734983877
  C        10.5295456219        5.9133093201       27.5172620976
  H         9.1114491688        5.4750852991       29.0337551892
  H        10.0594965866        6.7627314898       29.3843975981
  C         9.8129043366        4.9991006575       26.5362977227
  H        11.4807732302        5.5334337071       27.3298158497
  H        10.5998421961        6.9716179529       27.1816579116
  C         8.6509936085        5.8006109141       26.0069184624
  H        10.4974436887        4.7964136049       25.7183354406
  H         9.7056770399        4.0663147523       26.9836803175
  C         7.5499039132        4.9279205093       25.3055236173
  H         8.1175919209        6.3533626324       26.8158971298
  H         9.0105306097        6.5803530514       25.2908999951
  C         7.2928156863        3.6037971743       26.0372451316
  C         8.0855536352        4.1382301005       24.1187379675
  C         6.2497659862        5.6840314650       24.9661661846
  C         7.5850148305        2.4850414919       25.2331792938
  C         6.8152335377        3.2676167480       27.3115336703
  C         8.0259894722        2.8002068508       23.9946872474
  C         8.5144048011        4.8426403053       22.9693859404
  H         5.8004242294        5.3618678295       24.0490708686
  H         6.5090479086        6.7918926894       24.9123865668
  C         5.0996867029        5.5315002081       25.9531633086
  S         7.0679697445        1.0089542266       26.0891626087
  C         6.6523362466        1.9171939899       27.4701055180
  H         6.5881276165        4.0584990137       28.0282029123
  C         8.4269705804        2.2071942224       22.8112598230
  H         8.5543751349        5.8970654460       22.9338922042
  C         8.8574501316        4.2940944403       21.7831697554
  H         4.8203498473        4.4616872179       25.9599377239
  H         5.4330223670        5.7591588435       26.9905120391
  C         3.8202151415        6.3557532928       25.5901406625
  C         6.0300219710        1.3381580277       28.7432720168
  C         8.8426057247        2.9138676720       21.6732630826
  H         8.3296880356        1.1074485648       22.6872911601
  C         9.2773035886        4.7449016598       20.5684307533
  H         3.4445177173        6.1885173517       24.5863331412
  H         4.1068484462        7.3489345563       25.5509823674
  C         2.6377942880        6.2909740224       26.5743955400
  C         6.0092520814       -0.0471141554       29.0125666951
  C         5.3522347799        2.2314780457       29.7844166723
  C         9.2005441409        2.2893946104       20.3510033862
  C         9.5490163169        3.6936232041       19.7157319000
  S         9.5558126561        6.3402907321       19.9327400524
  H         1.8024648405        6.4119014684       25.9321854401
  H         2.7152123465        7.0845492157       27.2820482908
  C         2.5974381014        4.9345936762       27.3043325749
  N         6.4661489550       -1.0678825935       28.2142202968
  C         5.5842700725       -0.4900181164       30.2472585852
  C         5.0448506800        1.8352221349       31.0801134941
  H         5.2852060025        3.2673114159       29.5240658969
  C         8.1113690471        1.6569561622       19.3687454499
  C        10.5417137998        1.4776315691       20.5801655360
  C         9.9455476473        4.2230599278       18.4587203824
  C         9.9793767765        5.5973651610       18.4218560419
  H         2.7649262879        4.1672057783       26.6386828001
  H         3.3501513199        4.9204250620       28.0720665997
  C         1.2440175899        4.8260843193       27.9890442983
  S         6.2850892854       -2.5064740335       28.9841530916
  N         5.5377198584       -1.8873476568       30.3243220698
  C         5.1078720474        0.3796997722       31.2932239785
  H         4.6849911242        2.5942395184       31.7338678940
  H         7.9701915105        0.6539013054       19.6940704071
  H         8.5433817063        1.6541115899       18.3760961410
  C         6.7102153455        2.3755591119       19.3969205765
  H        10.9774439506        1.2308864882       19.6154988415
  H        10.3916339121        0.5352406505       21.0106437621
  C        11.6615106013        2.3519872095       21.2899456217
  H        10.1358883308        3.5780177260       17.5295263624
  C        10.2943972244        6.3848161104       17.2164490597
  H         0.9662790900        3.8075949833       28.2114735839
  H         0.5336509051        5.0701657998       27.1977760787
  C         1.0979263852        5.8282402053       29.1486354978
  C         4.8705667735       -0.3404208636       32.5710530177
  H         6.9369241861        3.4048673907       19.2383511121
  H         6.2738173061        2.2718194841       20.3221042611
  C         5.6976968647        1.8481431631       18.3470466406
  H        11.2722596677        2.7478657493       22.2182385500
  H        11.8446581310        3.1890987792       20.6680990121
  C        12.9962967367        1.5794257072       21.5677080614
  C        10.3128484610        7.7510343928       17.1205840479
  C        10.5143865795        5.5840729919       15.8912224640
  H         1.9223422547        6.5403230497       29.2189100842
  H         0.2395197439        6.4271979783       29.0273654852
  C         1.0251110153        5.0931672846       30.5109874721
  H         4.7154910206       -1.4236056167       32.4724681558
  C         4.5618371188        0.0857005630       33.8163995218
  H         5.9198726757        0.8228909911       18.2325421864
  H         6.0131863818        2.3010736726       17.4386552111
  C         4.2108539737        2.1932673259       18.6194383664
  H        12.7737496823        0.7984869690       22.2241604097
  H        13.4034152328        1.1250258975       20.6280726310
  C        14.0613467863        2.4939030322       22.0254847722
  N        10.1547466004        8.6637786968       18.1955593784
  C        10.6543059625        8.4351418709       15.9408881285
  C        10.7226925198        6.2678328117       14.6827110252
  H        10.5118795062        4.5206640084       15.8562092845
  H         0.4049062000        5.7176166266       31.1050217872
  H         0.6028425073        4.0924156764       30.5433044548
  H         2.0523491166        5.0701904740       30.8805418873
  S         4.3920057866        1.7781608290       34.2342507109
  C         4.4735389867       -0.8576766058       34.9238775041
  H         4.3078908914        2.7823200028       19.5516441275
  H         3.6752174169        2.7283108360       17.7903733389
  C         3.4286858117        0.9421510644       18.9353782164
  H        13.7099329399        3.0023505944       22.9450748337
  H        14.2964510581        3.1764295010       21.1820735024
  C        15.3752805669        1.7086561462       22.3164266339
  S        10.3616849260       10.2084077592       17.7524334383
  N        10.6701217458        9.8424579583       16.1677938043
  C        10.9181650182        7.7537568839       14.7425359275
  H        10.8600968901        5.6768394296       13.7342890567
  C         4.0908362627        1.1846876040       35.8456228732
  N         4.1870571727       -0.1595741167       36.0436671351
  O         4.7853405246       -2.0166696277       34.8667665509
  H         2.3405286971        1.2179948416       18.9567766538
  H         3.8653757837        0.5090927994       19.8467568834
  C         3.5044068059       -0.2522586665       17.9525719800
  H        15.0926780640        0.7371157240       22.8132475797
  H        15.7985599985        1.4812041742       21.3262558638
  C        16.4171824948        2.5689669675       23.0071287771
  C        11.2889151754        8.6036184799       13.5927134263
  S         3.8377962325        2.2084526223       37.3197572576
  C         4.0435155267       -0.9452381701       37.3809714648
  H         3.7727162123        0.1305058127       16.9765501535
  H         4.4424418164       -0.8059487676       18.2097647472
  C         2.2815210657       -1.1575417002       17.8902596765
  H        15.9958618515        3.1439260545       23.8219314309
  H        16.9479584343        3.4120988977       22.4577675226
  C        17.4356180905        1.7155200946       23.7379612723
  H        11.3657510908        9.6340529632       13.7752183875
  C        11.7696778584        8.3091333093       12.3148679335
  H         3.2778627603       -0.5567279485       38.0102566357
  H         3.5894175572       -1.9383437631       37.0457032473
  C         5.4220231942       -1.2115813919       37.9483552513
  H         1.5909661001       -0.9061162911       17.1456978016
  H         1.6940190044       -1.1522723760       18.8300283840
  C         2.5926158654       -2.5858307032       17.4493433928
  H        17.6672134778        2.1556910728       24.7378079679
  H        17.0631041784        0.7644100890       23.7600874685
  C        18.6850905050        1.6049193526       22.8712458038
  S        12.0559535147        6.7049003800       11.7279157718
  C        12.0761299956        9.4083488480       11.3496223603
  H         5.4524853089       -0.7068995035       38.9159982707
  H         5.6834491870       -2.1586400547       38.2224593998
  H         6.2874100736       -0.9147801330       37.3218266518
  H         3.5818370537       -2.9492243593       17.7667147038
  H         2.4561034387       -2.7410536261       16.3862035147
  H         1.8821229527       -3.2222361471       17.9401454901
  H        19.5218234355        1.3089544043       23.4632916797
  H        18.9910512999        2.5346183272       22.3925908472
  H        18.5792498693        0.9098079495       22.0529382842
  C        12.5755175488        7.4679198791       10.2482837387
  N        12.6105567005        8.8397933678       10.2786523047
  O        11.9127995210       10.5985649204       11.6679700575
  S        13.0264438957        6.7023145222        8.7544320013
  C        12.8823149517        9.7545980576        9.1467986098
  H        13.2269818808       10.7194274665        9.4382648283
  H        13.7047893965        9.2835316912        8.4778340786
  C        11.5716321842        9.8667476522        8.2563611933
  H        11.5351240075       10.8984135309        7.8755025938
  H        11.6822770609        9.2402834389        7.3861451370
  H        10.6791697739        9.6564960060        8.8169771860
  H        21.8414757762       11.2020870309        3.5088181292
  C        22.2024134182       10.1771830879        3.4458587961
  H        21.2929361553        9.5518256915        3.3859933694
  C        23.1023882420        9.8018992980        4.6949021200
  C        23.0314435964        9.9041803579        2.1859129815
  C        22.3221980191        9.8988976976        6.0455756980
  H        23.6762040578        8.9309814714        4.5832207696
  H        23.8971830009       10.4622001229        4.5787839503
  H        23.0120746560        8.8386747945        1.8851795980
  H        24.0960974800       10.1825588002        2.2663527239
  H        22.6801727107       10.4821797705        1.4094940349
  C        21.6530599446        8.5588352636        6.4663649975
  H        22.9157599909       10.3148209313        6.8512119522
  H        21.5867803854       10.6887822700        5.9488167340
  C        20.4432861261        8.7818572828        7.4095930810
  H        22.2366892344        7.8966679324        7.0778785075
  H        21.4014269430        7.9998371859        5.5729290758
  C        19.1818104252        9.2116896732        6.6264789718
  H        20.7447263165        9.4579569645        8.2517714933
  H        20.2097949344        7.8661899217        7.8900852281
  C        18.1018347274        9.6030790588        7.6364296624
  H        19.4565006243        9.9335385022        5.7752138659
  H        18.7635358200        8.3887925813        6.0352319842
  C        16.9865453124       10.5004235077        7.1733270770
  H        18.5570086745       10.0356311904        8.4715557416
  H        17.6608960627        8.7532501580        8.1077792209
  C        17.4195514264       11.8107152444        6.3938232486
  C        16.6289049221       11.3406092911        8.3382998790
  C        15.9290472333        9.8864538099        6.2638350164
  C        17.2620337674       12.9425612495        7.1727827956
  C        17.8400583537       12.0984280585        5.1177725908
  C        16.8310923719       12.6396835005        8.4527891971
  C        16.2017984006       10.7059471627        9.5028462183
  H        16.4850972138        9.5355015460        5.3305567133
  H        15.6593641714        8.9744521987        6.8225341877
  C        14.6809107122       10.7716450781        6.0392492743
  S        17.6948801067       14.3474615753        6.4053057824
  C        18.0447992022       13.4378660736        4.9525636355
  H        17.8764477756       11.2663053849        4.4186281610
  C        16.4845553704       13.3426766587        9.6147081070
  H        16.0737749610        9.6342469653        9.4417433791
  C        15.8931326644       11.3724848074       10.6348710753
  H        15.0076114028       11.7697084194        5.8083312674
  H        14.2222330427       10.8639122181        7.0010368675
  C        13.6756721313       10.1897982219        4.9977678397
  C        18.5633020484       14.1309275085        3.7058059326
  C        16.0960363728       12.6567636343       10.7411545460
  H        16.6110467875       14.4331531511        9.6716240636
  C        15.5168257591       10.9986087029       11.8550788407
  H        12.8059308774       10.8502894760        5.0521952179
  H        13.3311181391        9.2578517932        5.3692829386
  C        14.1545726963       10.1501940724        3.5522224982
  C        18.4087823840       15.5114512974        3.4524575042
  C        19.1946332668       13.3135377038        2.6123280689
  C        15.7436854331       13.3912382303       11.9685122294
  C        15.3394975737       12.0654724187       12.6649718991
  S        15.1516728110        9.4368548216       12.5362082689
  H        14.4716079466        9.1169822221        3.3444900967
  H        14.9363915852       10.8367239644        3.2736413877
  C        12.9136933927       10.3791818526        2.7209773521
  N        18.1163210156       16.5223238965        4.4036368911
  C        18.5986071669       16.0406927184        2.1828255505
  C        19.3460934841       13.8023647784        1.3622129993
  H        19.3671737341       12.2555146871        2.6037410678
  C        14.5649103781       14.3888151063       11.9534534041
  C        16.9430463157       14.0106968690       12.7255352920
  C        14.9328687548       11.6480352720       13.9364020520
  C        14.8595862343       10.2753934965       14.0582480391
  H        12.1286903190        9.6431041348        2.8297444160
  H        12.6025795278       11.4104311962        2.8120643540
  C        13.3566773541       10.2572066343        1.2689887525
  S        18.0155894424       17.9764441542        3.6638932799
  N        18.5001662296       17.4925268344        2.2462774885
  C        19.0106135518       15.2799256500        1.0603795434
  H        19.7847617801       13.0850426938        0.6946328746
  H        14.8951407552       15.3520292519       11.5238201870
  H        14.0946020527       14.5581808994       12.9002829464
  C        13.4226606713       13.8833283991       11.0262841840
  H        17.0147658154       15.0235797961       12.4538158150
  H        16.7375457030       14.0399392902       13.7599353217
  C        18.2901889258       13.2276403066       12.5273779916
  H        14.6002185707       12.4288726228       14.6040814506
  C        14.3543934800        9.5004660864       15.2308854617
  H        14.0212737331        9.3941775798        1.1313639802
  H        13.7382670151       11.1632340904        0.7792207065
  C        12.1078680908       10.0604244810        0.2951895063
  C        19.1810684338       16.0200427319       -0.1562109043
  H        13.3921680506       14.6930170378       10.2604131345
  H        13.6956555888       12.9827675096       10.5173093910
  C        12.0824400771       13.8500341971       11.7439937051
  H        18.8313747732       13.5027745366       11.5920564391
  H        17.9951865060       12.1706921584       12.4788347225
  C        19.3211729987       13.3567232294       13.6891248404
  C        14.2333885752        8.0852298325       15.3621303781
  C        14.2730836801       10.1649032571       16.5638026706
  H        11.8023879132        8.9710691500        0.3412100488
  H        11.2554079198       10.6652604254        0.6229896368
  C        12.4390930340       10.2719701714       -1.1977456481
  H        19.0432008214       17.0842629952       -0.1566529292
  C        19.4659368511       15.6312604499       -1.4242575673
  H        12.0841185189       14.6777800341       12.4873654995
  H        12.0429728390       12.9168016707       12.3812274093
  C        10.9153156907       13.8709300646       10.7574276352
  H        18.9079440345       14.0030901881       14.4686977202
  H        19.4849524420       12.3671524234       14.1714428628
  C        20.7218094574       13.8416308799       13.2112477705
  N        14.3919267451        7.1719052288       14.3590594309
  C        13.7856580406        7.5025503415       16.5189530897
  C        13.7160093476        9.6149525791       17.6650358793
  H        14.5908049805       11.2222138793       16.5809173757
  H        12.2041082630       11.2977621425       -1.4536690420
  H        11.7383317788        9.6691409094       -1.7802237636
  H        13.4459778619       10.0122144213       -1.5342153975
  S        19.6948223995       13.9959409953       -1.8975428133
  C        19.4891991529       16.5948798027       -2.5051105627
  H        10.9841469702       14.6261488278       10.0058493600
  H        10.9349692781       12.8636977649       10.4705792970
  C         9.5662046682       14.0053843650       11.4219179883
  H        20.4895364901       14.6644888928       12.4822376425
  H        21.3220584207       13.0046979317       12.8668570024
  C        21.4770417755       14.4341252661       14.3993338878
  S        14.0052718524        5.7257140138       14.9442377552
  N        13.6313505971        6.1052166653       16.4162679312
  C        13.5228009913        8.1759199221       17.7346024695
  H        13.7336876417       10.2112543011       18.5688107092
  C        19.9890810763       14.6435237710       -3.5409275052
  N        19.8601834955       16.0012410136       -3.6498912161
  O        19.3507552104       17.7901551961       -2.3578459792
  H         9.2904284396       13.0671276570       11.8484608998
  H         9.7088141155       14.7354520131       12.1953783909
  C         8.4973400754       14.5692705465       10.4389150474
  H        20.7249723717       14.8778621634       14.9878863434
  H        22.0126641008       13.6163974922       14.8203403848
  C        22.4609069542       15.5002312368       14.0365333737
  C        13.1686990102        7.4719874527       18.9010033545
  S        20.0372505652       13.7474412514       -5.0803468752
  C        19.8851523109       16.7367456984       -4.9128307452
  H         7.9011012147       15.3109903020       10.9611051522
  H         8.9729131649       15.1905246110        9.6677648300
  C         7.6560304093       13.4367690598        9.7591924459
  H        22.7426396560       15.4111496171       13.0034325751
  H        23.4534905153       15.1840520504       14.4267551875
  C        22.0035809365       16.9295011998       14.3846608721
  H        13.3813737387        6.4462653307       18.9263364368
  C        12.7750051109        7.9220202033       20.1718398636
  H        20.6476005472       16.3735128142       -5.5741225985
  H        20.2862719057       17.7300278272       -4.7504855370
  C        18.4644987756       16.9499962846       -5.5154361820
  H         7.4992169240       12.6567304203       10.4602470137
  H         8.1861421068       12.8942221090        8.9226679388
  C         6.3896331279       13.8839664895        9.1007112053
  H        22.7142976672       17.6313168246       13.9729614944
  H        20.9835851739       17.0052109891       13.9837418840
  C        22.0467258110       17.1371787030       15.9251608707
  S        12.4818374309        9.5694474199       20.6446054787
  C        12.4508019920        6.8266055903       21.1758689915
  H        18.1166276416       17.9032903570       -5.0940888859
  H        17.6465600877       16.2240502742       -5.2639902597
  H        18.3647810228       17.0750082720       -6.6553623456
  H         6.2293151822       13.6247370755        8.0335886382
  H         5.4966749073       13.3897991326        9.5852288518
  H         6.2706211608       14.9188829483        9.1863198587
  H        22.7038781111       16.3721285934       16.3827445610
  H        22.1237934953       18.1752070614       16.2868258359
  H        21.0538991961       16.8739715131       16.2716041797
  C        11.9581761989        8.7816191667       22.1507984229
  N        12.0194625433        7.4358550797       22.2663014951
  O        12.8422314893        5.6621165600       21.1696058346
  S        11.3413332721        9.7475743308       23.4965447962
  C        11.7630166611        6.6961124516       23.5129429726
  H        11.3405997011        5.7930477300       23.1328914174
  H        10.9615230894        6.9492389344       24.1671896527
  C        12.9906228756        6.2481905202       24.2489286764
  H        13.8152626241        6.3125508654       23.5249761619
  H        12.8779362677        5.2485384197       24.6184430082
  H        13.1951954803        6.9718173096       25.0199537672
