352
 i =    19000, time =    19000.000, E =        25.4034990153
  H        11.6174697065        7.1606780577       32.1070385692
  C        11.0582949694        6.2336874271       32.1910280054
  H        11.7764689420        5.5450734209       31.7151735836
  C         9.7663044785        6.3803340783       31.3261740138
  C        10.7586344248        5.9227411103       33.6348151266
  C        10.0268465923        6.7145907002       29.8358032376
  H         9.3928860712        5.2847129281       31.3350494948
  H         9.0613250212        7.0520539005       31.8353058918
  H         9.9676473578        6.5747764545       34.0236490342
  H        10.3160577974        4.9097297084       33.5096638842
  H        11.5744866372        5.8471662992       34.3313819354
  C        10.2217537433        5.4970029252       28.9821510167
  H        10.7965056418        7.4673004192       29.6978581122
  H         9.1604740849        7.2325330438       29.4704678967
  C        10.7254442154        5.7139826786       27.4314429732
  H        10.7872712467        4.7145045665       29.4204978128
  H         9.2850851691        4.9196366303       28.8704674213
  C         9.7540346584        5.0259344696       26.4411834397
  H        11.6176221332        5.1524208887       27.2504066863
  H        11.0051151077        6.7422397373       27.2520939786
  C         8.5718456238        5.9270138027       26.1122144657
  H        10.1382714898        4.9341589745       25.4583844023
  H         9.5839867804        4.0260063177       26.7605512703
  C         7.3934778169        5.1866296427       25.3733683724
  H         8.2409047352        6.4486982685       27.0042662528
  H         8.8717882686        6.7815137500       25.4869315090
  C         7.0193939113        3.8797330048       26.0079674644
  C         7.8086674210        4.4847096668       24.1038464148
  C         6.2765491696        6.1037609628       25.0680899040
  C         7.1728276929        2.7898799313       25.2129738514
  C         6.6604134577        3.5389443752       27.2929945017
  C         7.6788796382        3.1807584584       23.9793773743
  C         8.4053608996        5.0942569112       22.9905140736
  H         6.5953372605        6.9614320577       24.4538327053
  H         5.9575964332        6.5839910611       25.9876378628
  C         5.0413512345        5.4727456647       24.5530268611
  S         6.9428830027        1.3082311172       26.0211086099
  C         6.5240307689        2.1820573144       27.4664617631
  H         6.5485187163        4.2636795243       28.0687006709
  C         8.0659252278        2.5736052328       22.7901442547
  H         8.5824510119        6.1366456884       23.1009405394
  C         8.8052899086        4.4970327604       21.8156601355
  H         5.2619075510        4.8366265424       23.7401787563
  H         4.6324065551        4.8817623316       25.3457930618
  C         3.8818102928        6.4434765547       24.2317146587
  C         6.1356933962        1.5357029394       28.7998527556
  C         8.6701334099        3.1808971225       21.6815052225
  H         7.9199883840        1.4965221982       22.7497431392
  C         9.1953311403        4.8444239799       20.5648773969
  H         3.2317437829        6.0649554976       23.4261392048
  H         4.2780643203        7.3848021427       23.8260353076
  C         2.9522213703        6.7817694984       25.4650349954
  C         5.9934880216        0.1496984198       28.9335640729
  C         5.7038358503        2.3785562974       29.9343775943
  C         8.9669106629        2.3847612475       20.4439670175
  C         9.2074714135        3.6996151502       19.6991163327
  S         9.5593397834        6.3007081282       19.6937408242
  H         2.3830902314        7.6482394254       25.1419843131
  H         3.7008912139        6.9820782194       26.2700887129
  C         2.0689593794        5.5797430368       25.8816882364
  N         6.3250236855       -0.7694482727       27.8990495370
  C         5.5906586491       -0.4565060771       30.1169207517
  C         5.3678684766        1.7975043540       31.1670814474
  H         5.6693997077        3.4477076541       29.8628504594
  C         7.7151761942        1.5927736856       19.8843275792
  C        10.2471972782        1.5196309516       20.6899715577
  C         9.4566667104        4.0903450697       18.3343774798
  C         9.7032557809        5.4529186270       18.2043951933
  H         1.4272161036        5.3686909244       25.0561423051
  H         2.6634045365        4.6366681221       25.9295532780
  C         1.3408837422        5.7206930770       27.2510260178
  S         6.0983075603       -2.2824465907       28.5063839822
  N         5.7605933989       -1.8426653264       30.0435157413
  C         5.3339400328        0.3004215830       31.3385592302
  H         5.0207076869        2.4219987231       31.9845705852
  H         7.3880864063        0.7806210378       20.5684664645
  H         8.0382455171        1.1302841915       18.9393847632
  C         6.4544857656        2.3348134393       19.4879998362
  H        10.5140923672        0.9742557208       19.7371339667
  H        10.0504754413        0.7504142111       21.4220125738
  C        11.4121593076        2.3922021210       21.1908354952
  H         9.5215864689        3.3954030851       17.6421757579
  C         9.9346202257        6.2253181151       16.8803021618
  H         0.4568748813        5.0918109196       27.2338552416
  H         1.0122333463        6.8109430891       27.3319674272
  C         2.2377599982        5.6149517726       28.4355183405
  C         5.0013660301       -0.2710231548       32.5889755238
  H         6.5127965825        3.0748378088       18.6599565824
  H         6.0809380753        2.8422470231       20.3564700211
  C         5.3813241828        1.3336520721       18.9810187479
  H        11.1371886316        2.8145289305       22.1693174836
  H        11.5560401629        3.2150875657       20.5102520301
  C        12.6435709064        1.5485136890       21.2332364409
  C         9.9752909286        7.6285391910       16.6935188775
  C        10.2720340374        5.3749633484       15.6694415503
  H         2.6072341187        4.6071956305       28.4468884836
  H         3.1022250666        6.2756496311       28.2366746716
  C         1.5010312361        5.8502359151       29.7502931084
  H         4.9758024691       -1.3665508933       32.4811276184
  C         4.6599639820        0.1765374428       33.8556062744
  H         5.0179255460        0.7380824356       19.7761376140
  H         5.8136272792        0.6323157747       18.2413427641
  C         4.1919819720        2.0884424835       18.3066088290
  H        12.4893121779        1.0158940421       22.1616430549
  H        12.6065593702        0.8060595917       20.4753750814
  C        14.0681058424        2.1442524633       21.3284668611
  N         9.5894735625        8.6180519629       17.6532585429
  C        10.3185674743        8.1959706227       15.4592739356
  C        10.6920011974        5.9107738427       14.4620272187
  H        10.3548216442        4.3772270426       15.8135516439
  H         1.0965094347        6.8001421095       29.8371416896
  H         0.7953391146        5.0413871151       29.7935584395
  H         2.0838432336        5.7589890996       30.6398011335
  S         4.4294907740        1.8356812310       34.2966250886
  C         4.5327540545       -0.8678634009       34.9160443357
  H         4.2225113474        3.1715065883       18.5891376630
  H         4.3491801864        2.2273235773       17.3205304413
  C         2.8518880961        1.4443451743       18.5719345376
  H        14.1559088183        2.7495075375       20.4391892897
  H        14.7245083575        1.3002361092       21.2542890439
  C        14.3519478327        3.0866277083       22.4364803252
  S         9.6835370207       10.0845157662       16.9651237661
  N        10.2846279721        9.6054636055       15.4604241846
  C        10.7452533504        7.3692151807       14.3119005802
  H        11.1449437300        5.2125418348       13.7068774293
  C         4.1637962623        1.1430826553       35.9311905768
  N         4.1264475880       -0.1982180990       36.0056283688
  O         4.4909153569       -2.0610070336       34.7180055863
  H         2.0999921592        2.2047456430       18.3311172980
  H         2.8763127312        1.3203463468       19.6735843714
  C         2.7847459951        0.2515740721       17.6386322537
  H        15.1183918025        3.7044729732       21.9638780920
  H        13.4125735899        3.6907635929       22.6299294458
  C        14.8582585610        2.5574647077       23.7454363853
  C        11.1564335796        8.0568148052       13.1383502651
  S         3.7612983471        2.0353442152       37.2913456193
  C         4.0133343973       -0.8880863691       37.2950128479
  H         2.2097642127        0.4826574972       16.7401814238
  H         3.7617989459       -0.0427284309       17.1524812066
  C         2.0726116493       -0.9167491562       18.2954724644
  H        14.6384858941        1.4802909741       23.8531408602
  H        14.2616455019        3.0333300821       24.4586828015
  C        16.3151591904        2.9256023118       24.0654139923
  H        10.9012842795        9.0566915679       13.1482756524
  C        11.6699236645        7.6211662440       11.8963944277
  H         3.1619465150       -0.5948307332       37.9142798703
  H         3.7060452451       -1.8710582784       37.0867293677
  C         5.3752261270       -0.9595820556       37.9986393366
  H         1.2879386249       -0.6234637743       18.9249557722
  H         2.6709959096       -1.4731450416       18.9124380813
  C         1.4184321275       -1.7883793391       17.1935812799
  H        16.3338721160        3.9788968550       24.1875223097
  H        16.7151023097        2.4866378629       24.9749786177
  C        17.3660572220        2.6473435690       22.9955152656
  S        12.4106466425        6.1288815937       11.6820280080
  C        11.6920695632        8.5533787653       10.7207297846
  H         5.5072224155       -1.9456715224       38.5315754526
  H         6.2485818836       -1.0016972759       37.3032139899
  H         5.5716630042       -0.2169561834       38.7082994347
  H         1.9669757120       -2.7536087303       17.1052090755
  H         1.3772868465       -1.2610128643       16.2030303876
  H         0.3704999681       -1.8768908857       17.4033650853
  H        18.2276393455        3.3066622833       23.0882435023
  H        17.0722687677        2.8556035310       21.9167510318
  H        17.7180330958        1.6368748014       23.0153002711
  C        12.4922827719        6.5999732075        9.9755433633
  N        12.2031451039        7.8966621561        9.6740792114
  O        11.6034531873        9.7977703170       10.8060447397
  S        13.3637805897        5.6061345370        8.7279553075
  C        12.5187603737        8.5462549156        8.3904051125
  H        13.5034479927        8.9806866106        8.3137609102
  H        12.3838210008        7.8055969243        7.5783335908
  C        11.5586327893        9.6642430047        8.0348920734
  H        11.6471125098       10.4626850372        8.6729451633
  H        11.6404901094        9.9526901533        6.9846521727
  H        10.5596297175        9.4036971057        8.1368785461
  H        20.9070624870       10.6648476536        3.8568913870
  C        21.6550598477        9.9281898781        3.5895234580
  H        21.0965984545        9.0452812635        3.6636440706
  C        22.7018920374       10.1212319348        4.6783078371
  C        22.1566569933       10.0698723286        2.1446760836
  C        22.1586783185       10.3763232314        6.0817597911
  H        23.3430911256        9.2140577200        4.6758309499
  H        23.3311294221       10.9893310050        4.4052987245
  H        21.9822145986        9.1575933239        1.6068258478
  H        23.2309017360       10.2103631920        2.0492026005
  H        21.5994428990       10.9115414650        1.6552437923
  C        21.4482699047        9.1269438881        6.5976987674
  H        23.0858995242       10.6359215161        6.6585882610
  H        21.4793649690       11.2428634585        6.0737031091
  C        20.6037420899        9.3333199045        7.8003311132
  H        22.1229565131        8.3624073293        6.9651176789
  H        20.8474036157        8.7271633246        5.7693982163
  C        19.3757746266       10.2221289564        7.6509209262
  H        21.0882291866        9.7264530621        8.6456487030
  H        20.3163102362        8.3639066419        8.0750741972
  C        18.1910801317        9.6625501623        6.9269126380
  H        19.1229383231       10.6431693725        8.5974885520
  H        19.7954764263       11.0358424445        7.1400643173
  C        16.8751394531       10.5867084626        6.7794149560
  H        17.8961016573        8.6984977416        7.4001465926
  H        18.5041133005        9.3057516144        5.9470063430
  C        17.2968003411       11.9029087805        6.1184631837
  C        16.3309842111       11.2742545173        7.9968400000
  C        15.6043296843        9.8480326122        6.0818000184
  C        16.9195323087       13.0175265935        6.8846091561
  C        17.9502768739       12.2678836276        4.9748230888
  C        16.3299472934       12.6467013819        8.0303013790
  C        15.7397633152       10.5981382448        9.0419274727
  H        16.0549287057        9.4147862754        5.1446826898
  H        15.3872442143        9.0949853584        6.8086367365
  C        14.4282466806       10.6576671769        5.6476248418
  S        17.3837646437       14.5535629955        6.2071910380
  C        17.9307731634       13.6371479478        4.7297769624
  H        18.2854037004       11.4553845693        4.3088827299
  C        15.8143780386       13.2467947875        9.1405812381
  H        15.8634833881        9.5705216829        8.9010758406
  C        15.3394118499       11.2154602051       10.2028285205
  H        14.8100743305       11.5454718346        5.2286533547
  H        13.7679214626       10.8904289255        6.4987934057
  C        13.4923009741        9.9847307290        4.6339137559
  C        18.3393309926       14.3274432319        3.4846920788
  C        15.3094064738       12.5787950950       10.2644981528
  H        15.9026291036       14.3151619704        9.2766867733
  C        14.9907777582       10.8327858912       11.4457666030
  H        12.4816085836       10.2342906863        4.7437833392
  H        13.3626860012        8.9546464096        4.9653749952
  C        13.9724711397       10.1758216960        3.1933597263
  C        18.2078900607       15.7348633568        3.2278144852
  C        18.5653342676       13.4286612867        2.3487585445
  C        14.8694014252       13.2726460371       11.5179891208
  C        14.7293712529       11.9429349497       12.2366620727
  S        14.7111596017        9.3007501064       12.3049052700
  H        15.0212727277        9.7963840937        3.1468363651
  H        13.9086459937       11.1773592277        2.7922276605
  C        13.4186814254        9.1591437581        2.2007846704
  N        17.7771404386       16.6926561527        4.1332797343
  C        18.3342099325       16.2959261458        1.9545691625
  C        18.7435797682       13.9736560665        1.0810170839
  H        18.6826797593       12.3573268262        2.4472094933
  C        13.5082216082       13.9598697220       11.3235622220
  C        15.8242065945       14.3070033792       12.1053618370
  C        14.3151089243       11.5896231865       13.5276341360
  C        14.2875567124       10.2129880973       13.6975649520
  H        14.3306213139        8.5903016565        1.8951168040
  H        12.8931108984        8.4374606217        2.8716877740
  C        12.6638618712        9.5229371070        0.9463960570
  S        17.7439523606       18.1318211831        3.4249208088
  N        18.1663969627       17.6820237788        1.8935687934
  C        18.6061798059       15.4519845382        0.8258949895
  H        19.0797242240       13.3205067665        0.3764324654
  H        13.7878820362       14.6583443633       10.5169238111
  H        13.3223656804       14.6787134869       12.1522203399
  C        12.2548115708       13.0657284884       11.0875803139
  H        16.0518655217       15.0163266524       11.3521562064
  H        15.4517738379       14.8219394480       13.0047061912
  C        17.1868318842       13.7456680755       12.6513138257
  H        13.8789186250       12.3388559742       14.2144274200
  C        13.8409418049        9.5139666506       14.9741921333
  H        11.9755558498       10.2885911160        1.1258089830
  H        11.9748672990        8.7452419954        0.5699561397
  C        13.6387657132        9.7977243314       -0.1518402605
  C        18.9752537460       16.0808905425       -0.4694615238
  H        12.4086876314       12.4159644055       10.2441932302
  H        11.8691661831       12.5126206786       11.8559818477
  C        10.9514918735       13.8544293661       10.7897552147
  H        17.6636117515       13.0920091768       11.9775589420
  H        16.9276019398       13.0210883957       13.4588283731
  C        18.1315001886       14.8961377065       13.0833622933
  C        13.7524866273        8.1451460031       15.2726371816
  C        13.4732698868       10.4594727186       16.0964175238
  H        14.3784798731       10.4826010286        0.2276861988
  H        14.2054198341        8.8713937183       -0.3279339142
  C        12.9643068558       10.0691370550       -1.4255587763
  H        18.8001728013       17.1167476293       -0.4951189519
  C        19.2759018438       15.6480059093       -1.7392208912
  H        11.0517253145       14.9248469660       10.7719718680
  H        10.4565127198       13.8168085697       11.7198643349
  C        10.1890855169       13.3022723431        9.5794031680
  H        18.4281656778       15.5567237953       12.2895932564
  H        17.6322673465       15.5590340227       13.7753481943
  C        19.4234255629       14.3538688125       13.7767815483
  N        14.1224285362        7.1265447549       14.4003546167
  C        13.5841075935        7.6111775149       16.5026693144
  C        13.1466717297        9.9342910270       17.2951808441
  H        13.3803857576       11.5204602855       16.0113035520
  H        13.6430190608       10.1416141868       -2.3042832987
  H        12.3576756518       11.0410334256       -1.3196834554
  H        12.1656571881        9.3760304401       -1.6346232866
  S        19.4886417940       14.0429062355       -2.3004403876
  C        19.3727353477       16.6563779775       -2.8646786256
  H        10.6813744886       13.6980801324        8.7378235820
  H        10.1452562170       12.1990805362        9.5011581599
  C         8.8459675016       14.0256587519        9.3912853572
  H        20.0541128314       13.8200633522       13.0719365769
  H        18.9467745804       13.7525168082       14.5015487805
  C        20.3727445706       15.3635933187       14.4806691762
  S        14.2149276184        5.6837841666       15.2237779098
  N        13.5911753480        6.2461753361       16.5763031440
  C        13.2083980666        8.4610669382       17.6411659467
  H        12.8531782658       10.6461388813       18.0365401432
  C        19.6952874183       14.7047229829       -3.9348454996
  N        19.5623123143       16.0518647608       -4.0006610560
  O        19.1926865616       17.8449631065       -2.7011755218
  H         8.3747224527       14.2993992904       10.3749370479
  H         9.0701186067       14.8974928127        8.7877885057
  C         8.0015786954       13.1737303400        8.4812843461
  H        20.0072144963       15.8178116229       15.3390616000
  H        21.2631565275       14.8043954033       14.8769140325
  C        20.9073610564       16.5054385705       13.5101422817
  C        13.0229103302        7.8235138807       18.8688461002
  S        19.8246504097       13.8257239799       -5.4518277042
  C        19.4086305393       16.8299274719       -5.2559042096
  H         8.5612957210       13.0504528996        7.5705836867
  H         7.8361644180       12.1846644380        8.9562589540
  C         6.6358381882       13.7792438372        8.1827799340
  H        20.0772317150       17.1755220519       13.3285785226
  H        21.2549598715       16.1378015769       12.5875006191
  C        22.0215997998       17.2966050472       14.1133560797
  H        13.4565492263        6.8401150225       18.9780242810
  C        12.4017579189        8.2550438141       19.9927539079
  H        20.2772294240       16.5327088971       -5.8932109095
  H        19.5587247186       17.8924908309       -5.1893478651
  C        18.0398227348       16.6281973826       -5.8699918161
  H         6.3093433123       13.3666465422        7.2694065787
  H         6.6388753683       14.8558839544        8.0246298496
  C         5.6065584474       13.5851833328        9.2714122240
  H        22.6969544882       16.5926271793       14.6342509870
  H        22.5064849306       17.9100530218       13.4107791377
  C        21.4663605370       18.2278642197       15.2175691925
  S        11.8525175753        9.8499432410       20.3813415239
  C        12.3360844746        7.3550559123       21.1230581143
  H        17.2488797860       16.7204219645       -5.1666630193
  H        17.9810874382       15.7825317828       -6.4581625383
  H        18.0712645145       17.5452875376       -6.4655619927
  H         4.7754891190       13.0149071978        8.8807288505
  H         6.0910184128       12.9638081560       10.0372644891
  H         5.2256527939       14.4758069922        9.5705149106
  H        20.4014581012       18.2647513174       15.3100718032
  H        21.9237051923       18.0063814774       16.1986512151
  H        21.7452462817       19.3701292146       15.0692487964
  C        11.4228102577        9.2349572035       21.9626327310
  N        11.6569154230        7.9170603305       22.1446945187
  O        12.7670029278        6.2183911161       21.1504411418
  S        10.8028222159       10.1813916677       23.4161943050
  C        11.6097479732        7.1546609543       23.3364916108
  H        11.4815257862        6.0578782906       23.1769797040
  H        10.7897623186        7.2457496838       24.0158822885
  C        12.8137187909        7.4883970932       24.2378452561
  H        13.5873520546        6.8749669031       23.8436969643
  H        12.6528793564        7.2383778894       25.2493785772
  H        12.8786449889        8.5733017301       24.2816609437
