352
 i =    33900, time =    33900.000, E =        24.8093125082
  H        12.3778760739        7.0580000724       32.4887787700
  C        12.0032537959        6.0827978018       32.3057945525
  H        12.7818079536        5.3776507389       32.0491989678
  C        10.9361128559        6.1480200370       31.2479944512
  C        11.5270347104        5.5756795344       33.6306855226
  C        11.5394520649        6.1062471744       29.8094524916
  H        10.1669951954        5.2908000420       31.4015202502
  H        10.3092321038        6.9722147177       31.3636394772
  H        11.4796388873        4.4781239385       33.4129911674
  H        12.2760493915        5.6839174785       34.3746327146
  H        10.5631584416        5.9957831878       33.9859785374
  C        10.5267544240        5.8546768785       28.6505527339
  H        12.3937860396        5.4688117452       29.7812734153
  H        12.0191130990        7.0376209888       29.7307805980
  C        11.0220981927        5.9763025464       27.2106413821
  H        10.0504505716        4.8956763095       28.7209089678
  H         9.6701180715        6.5966629382       28.7249722758
  C        10.0962512697        5.2710028912       26.2998639332
  H        12.0122027932        5.4974335981       27.0934727213
  H        11.1970676142        7.0134479758       27.0373863407
  C         8.8385326130        6.0800756743       26.0504736492
  H        10.6215052060        5.1649786587       25.3633641992
  H         9.8961488032        4.2301108097       26.5754487077
  C         7.7715322215        5.3150034327       25.2539227272
  H         8.3305548173        6.3394700644       27.0281376451
  H         9.0700624943        7.0917998410       25.6446980796
  C         7.3987960563        3.9851185971       25.9945642908
  C         8.2589418883        4.6259894274       24.0432689622
  C         6.5235054946        6.1817401518       25.0625157638
  C         7.7801059663        2.9066966398       25.2202193150
  C         6.8035921359        3.6254390019       27.2306640329
  C         8.2725315259        3.3016879971       24.0128196551
  C         8.6072982564        5.3178440672       22.9405201872
  H         6.6256197728        6.9730697884       24.3655788815
  H         6.1449379912        6.7040240247       25.9615871963
  C         5.2728455703        5.4092979469       24.6601165249
  S         7.2972636187        1.4324238300       25.9801332818
  C         6.6073976714        2.2377306746       27.2995249727
  H         6.5084094394        4.3684165096       27.9614771804
  C         8.6281534806        2.6580565211       22.8511829590
  H         8.5840980470        6.3500757209       23.0213810132
  C         8.9912873000        4.7235965920       21.7618405988
  H         5.5384063022        4.8271285854       23.7751531813
  H         4.9415489200        4.6347214825       25.3928555305
  C         4.0631807481        6.3459832573       24.2276100145
  C         6.1364141466        1.5665265172       28.5681550767
  C         8.9394281103        3.3791496124       21.6404306696
  H         8.7315930292        1.5648566592       22.7663048699
  C         9.3191453077        5.1009718937       20.4661443794
  H         3.4938493139        5.8754278191       23.4214812962
  H         4.4571855568        7.2001592960       23.6574623043
  C         3.0885981321        6.7517913897       25.3393234419
  C         6.0676898737        0.1298719269       28.7687492606
  C         5.7925838236        2.3309565194       29.8285654847
  C         9.3232580131        2.6818915830       20.3617162117
  C         9.5325062278        3.9993747827       19.6967510753
  S         9.4278618927        6.6064157483       19.6268047462
  H         2.2789879576        7.2591319411       24.7953900203
  H         3.5799309693        7.4798788012       25.9709457559
  C         2.3489400955        5.5867858372       26.0146091549
  N         6.4502531307       -0.8421798480       27.7701855463
  C         5.6672808082       -0.5212124960       29.9470483374
  C         5.5868143626        1.6264939205       31.0379348287
  H         5.8410140375        3.4102837793       29.8502690948
  C         8.2478610060        1.6491040938       19.7414301250
  C        10.7206522494        1.9418424252       20.4054358463
  C         9.8641356094        4.3641400536       18.3719631636
  C         9.8785991022        5.7403820141       18.2277597819
  H         1.7280254544        5.0711449086       25.2497171750
  H         3.0427256583        4.7151820560       26.2822616646
  C         1.4180683189        5.9112414556       27.2296009376
  S         6.2418498834       -2.3062755271       28.4212320890
  N         5.7147047174       -1.9111400032       29.9015059080
  C         5.4357954219        0.1665244834       31.1665712134
  H         5.5539563716        2.3011410647       31.8722789904
  H         7.8483084444        0.9557608165       20.5203424264
  H         8.7223452302        1.0637830078       18.9665159901
  C         7.1081938252        2.4968907987       19.1310861740
  H        11.0362643383        1.4791456839       19.4292161892
  H        10.6172873649        0.9858144084       20.9914349968
  C        11.8435813928        2.6608978624       21.0156179985
  H        10.1940474272        3.6553351641       17.6663226897
  C        10.1184106907        6.5040820034       16.9787386584
  H         0.8111683088        5.1573008177       27.4709265054
  H         0.7274017957        6.7287048664       27.0467463355
  C         2.1700828933        6.3487145753       28.4754782679
  C         5.2604654926       -0.5877216751       32.4060700741
  H         7.4843720787        2.9102701547       18.1452142382
  H         6.9030401823        3.3582635912       19.7750557052
  C         5.8306511651        1.7342751663       18.7387970580
  H        11.5652565332        3.0487972010       22.0414062247
  H        12.1446116049        3.4757119553       20.3404897843
  C        13.0537033210        1.6626906363       21.0885910051
  C        10.1382820548        7.9356344513       16.8639324771
  C        10.3536869355        5.7865616770       15.7069765353
  H         2.8048614836        7.1945903838       28.2516070299
  H         1.5066207759        6.6975712296       29.2556894883
  C         3.1417604804        5.3956204453       29.0901502558
  H         5.4174449637       -1.6209388751       32.2920281420
  C         4.9171787425       -0.2160899113       33.6795215952
  H         5.3607128199        1.2495020646       19.5609638309
  H         6.1465423354        0.9760939503       17.9857356396
  C         4.9069128550        2.7646551555       18.0364459368
  H        12.8579481449        0.9948764648       21.8783468100
  H        13.0503121377        1.1270155609       20.2146363322
  C        14.3634739628        2.4730530507       21.3413311912
  N        10.0297133239        8.8945826717       17.8756694573
  C        10.2309077700        8.6385098015       15.6765467146
  C        10.5347042046        6.4554913623       14.5281301574
  H        10.6164357388        4.7905270855       15.7814919214
  H         3.1972396628        5.4441141588       30.1660784099
  H         2.8787621049        4.3523096255       28.8860515382
  H         4.1351617340        5.4947500317       28.6709187779
  S         4.5969585751        1.4055979617       34.1704087380
  C         4.7776452574       -1.2298139549       34.7467803330
  H         4.9792388988        3.6074179542       18.6438382784
  H         5.3578242655        2.9278825698       17.0452996871
  C         3.4143198286        2.3039928748       17.9899685912
  H        14.3973728140        3.3092582399       20.6837111957
  H        15.0800240224        1.7938803736       20.9173273477
  C        14.6467276444        2.8698593196       22.8119876190
  S        10.0599433237       10.4463341310       17.2751130149
  N        10.0725297190       10.0125129389       15.7142416893
  C        10.4627857153        7.9493925513       14.4083397600
  H        10.5963888825        5.8127621641       13.6644249381
  C         4.2103422651        0.7116843878       35.7462971297
  N         4.3747973419       -0.6527985837       35.8522401360
  O         5.0356990713       -2.4556717662       34.6624233289
  H         2.8333923580        3.0879920625       17.5067559932
  H         3.0602844685        2.1786233053       19.0500197100
  C         3.1807163459        1.0344445541       17.2497228294
  H        15.2626634532        3.6969723945       22.9726723599
  H        13.6386963143        3.0923396543       23.2609892294
  C        15.1962680712        1.6310476440       23.5742406628
  C        10.6907900029        8.6846120868       13.2264801088
  S         3.8901680322        1.6209816931       37.2155792319
  C         4.3884813491       -1.4319017623       37.0743598823
  H         2.4650775820        1.0561066323       16.4372122493
  H         4.0182350994        0.7157332392       16.7269443856
  C         2.7799837825       -0.0849831341       18.1757353082
  H        15.2847718254        0.8199979146       22.8125564257
  H        14.5050909121        1.3120418050       24.3496676826
  C        16.5739035715        1.9191624043       24.0555697452
  H        10.2690160987        9.6483754274       13.2142493135
  C        11.3774416694        8.3631295836       12.0528136313
  H         3.7600885213       -0.9035302118       37.8408127635
  H         3.9893007600       -2.4381017852       36.8770839535
  C         5.8142343425       -1.4074300489       37.6428813561
  H         1.8226713974        0.1406163569       18.6568197498
  H         3.5127358877       -0.1296799698       18.9342552343
  C         2.5693522944       -1.3754406851       17.4290007383
  H        16.4768975900        2.7751307555       24.7357638521
  H        16.9094364168        1.1491241800       24.7517932336
  C        17.7091802274        1.9621734472       23.0583515117
  S        12.1360900091        6.8051373343       11.7753060699
  C        11.3797683099        9.3668974645       10.9533764936
  H         5.8083474441       -1.3930908858       38.7359826723
  H         6.3527730543       -2.3148194196       37.3163128939
  H         6.3423740893       -0.5713773879       37.1273833742
  H         2.4096493247       -2.2773636267       18.0087926187
  H         3.4204442448       -1.5731078481       16.7671787218
  H         1.6401674619       -1.2655941338       16.8848244245
  H        17.9859319259        0.8605302296       22.8346930943
  H        18.5742403068        2.4100500977       23.5177495702
  H        17.3255064167        2.5035618752       22.1680570225
  C        12.5117643785        7.5218526581       10.2202785098
  N        12.0708034595        8.8099315403        9.9157445356
  O        10.8618083357       10.5010276898       10.9320567413
  S        13.2291051503        6.7503651258        8.8796118210
  C        12.1183578000        9.5078129197        8.6667481334
  H        12.0291225933       10.5876384359        8.9078530624
  H        13.0340156396        9.4144224064        8.2629225106
  C        11.0246312419        9.2030237057        7.6350716686
  H        11.3841578907        8.7085533824        6.7471298783
  H        10.2091630093        8.7056336776        8.0886532438
  H        10.7503778324       10.1681881532        7.2957910031
  H        20.6975503013       11.1467245144        3.3266288251
  C        21.3894292095       10.3378692666        3.5930781619
  H        20.8513594630        9.4519600723        3.8440322849
  C        22.3072717746       10.6863901227        4.7680826008
  C        22.1131308520        9.9917974598        2.2828913412
  C        21.5539788200       10.8960685552        6.0818686627
  H        23.1257825449        9.9885689800        4.7981190099
  H        22.7436959652       11.6384856402        4.4898214246
  H        22.0607427801       10.9088186025        1.5816847727
  H        21.4990952036        9.2685782928        1.7680018468
  H        23.1087917944        9.6594730522        2.4734868981
  C        21.2065161694        9.5503161921        6.7225962798
  H        22.1035271937       11.5347281951        6.8027423278
  H        20.6696341171       11.3785789940        5.7060649260
  C        20.5267587566        9.8414461597        8.0625865609
  H        22.1211019310        8.9780957002        6.8660589091
  H        20.4459259533        9.0460855836        6.0591218090
  C        19.1885808295       10.6912893329        7.9194056492
  H        21.2855529651       10.4662296405        8.5316846321
  H        20.3657383768        8.9635784107        8.6468110780
  C        18.0705135996        9.9085897434        7.2683299455
  H        18.9154347777       11.0427085085        8.9044940459
  H        19.4525524086       11.6296755853        7.3932347090
  C        16.8199008734       10.7553584798        6.9038685052
  H        17.7610899139        9.0981998902        7.9832380290
  H        18.4717049021        9.4062918640        6.3535034810
  C        17.1642479403       12.0490200320        6.1699760888
  C        16.2945951286       11.5274613105        8.0552830410
  C        15.6301310523        9.8992351438        6.2990181850
  C        16.8467438445       13.2112192424        6.9127591681
  C        17.7207114851       12.3809708447        4.9430145270
  C        16.3180975092       12.8702172161        8.1397299504
  C        15.8624087143       10.8362083151        9.2123681684
  H        16.1158606303        9.1891269454        5.6097825491
  H        15.2047681370        9.1650160579        7.0085749100
  C        14.5151392858       10.7609546370        5.6603263985
  S        17.2485304355       14.7222147384        6.2119602920
  C        17.8265135511       13.7498637109        4.8264095159
  H        18.0583629830       11.6231084246        4.2315768641
  C        15.9486857517       13.4962156397        9.2476489311
  H        15.8124817283        9.7531096436        9.1600744892
  C        15.4962083287       11.4748071754       10.3730722475
  H        14.8892837635       11.6392181946        5.2677156068
  H        13.8931225522       11.1936492868        6.4350751766
  C        13.5431195178       10.1084840317        4.6697049413
  C        18.2796484421       14.5009391876        3.6136257862
  C        15.5212171633       12.8120695497       10.4395048770
  H        15.9508523650       14.5904345205        9.3776352732
  C        15.0915102111       11.1102500979       11.6460686957
  H        12.6504537849       10.6828672911        4.7045137801
  H        13.3393490017        9.0771893844        4.8639767604
  C        14.0673094733       10.0946594182        3.2423761415
  C        18.3886312864       15.9134931830        3.3991385547
  C        18.5808942827       13.7005798461        2.3871018357
  C        14.9767042322       13.5645618791       11.6388903537
  C        14.6765869005       12.2214475084       12.4071592204
  S        14.7325088312        9.6165200870       12.4703558853
  H        14.7633850951        9.3026095514        3.1991351085
  H        14.4864388255       11.0917621775        3.1927422564
  C        12.9461727253       10.0362846352        2.3341955042
  N        18.1132058983       16.9486681034        4.3016784121
  C        18.6430130875       16.4674716938        2.1668810561
  C        18.9720398622       14.2260706620        1.2111135897
  H        18.4559623926       12.5877739129        2.4018431163
  C        13.7414642457       14.4262993033       11.3502449561
  C        16.1987752995       14.2754405414       12.4241739536
  C        14.2087317269       11.8499211614       13.6830919820
  C        14.2387011823       10.5073969210       13.9290325070
  H        12.2641579015        9.2347140406        2.5859580361
  H        12.4451166063       11.0242619293        2.5989011071
  C        13.5123370004       10.0980253281        0.8975540818
  S        18.2871261854       18.5011903256        3.6740455638
  N        18.6062667469       17.9327177632        2.2027596930
  C        18.9536009340       15.7395389626        1.0525074217
  H        18.9997433833       13.5493561888        0.3495134562
  H        14.0478919507       15.2160605060       10.6730494419
  H        13.4673555889       14.9819691632       12.2549409804
  C        12.5744607285       13.5795540426       10.8443612805
  H        16.7391150258       14.9026289354       11.6966649299
  H        15.8503727442       14.9421259841       13.2466773945
  C        17.2675945064       13.3893968298       13.1372390189
  H        13.7900488323       12.5591310344       14.3720821755
  C        13.9971341987        9.7652604528       15.2016789969
  H        14.2348298777        9.2928833739        0.6922786625
  H        13.9693632998       11.0887264186        0.7950260517
  C        12.3177089426        9.9722706909       -0.0688941281
  C        19.1804037002       16.3658350511       -0.2667139229
  H        12.9216595682       13.1847016539        9.9150200343
  H        12.3544544513       12.7034239641       11.4445644390
  C        11.3061926248       14.4923786344       10.7163768607
  H        17.4723261677       12.4749982973       12.5501623712
  H        16.8640849925       12.8967808856       14.0440370413
  C        18.3388680039       14.3080792737       13.5452188836
  C        14.0432614974        8.3286214001       15.3955467625
  C        13.6033577994       10.5072338701       16.4085505595
  H        12.0159209502        8.9290065243       -0.2240921673
  H        11.4590956224       10.4387772921        0.3681997647
  C        12.7430240232       10.6594475997       -1.3848617868
  H        19.0160749136       17.4398768978       -0.2679035647
  C        19.4643595376       15.8735523308       -1.5124184636
  H        11.5857526601       15.5045439499       10.2795493518
  H        10.8278451354       14.6873166204       11.6960474649
  C        10.2252103669       13.9019600400        9.7957209856
  H        18.9427389168       14.8300319597       12.7777384852
  H        17.7596783729       15.1368806169       13.9886572891
  C        19.2980987548       13.6878075798       14.5310603336
  N        14.2661230530        7.3426503350       14.3775116134
  C        13.6877892933        7.6362664670       16.6017089813
  C        13.5018013186        9.8527500720       17.6572777889
  H        13.5194305321       11.5746689795       16.4323278318
  H        13.7856784818       11.0514745114       -1.4697537480
  H        12.0237978372       11.5623351951       -1.5550713980
  H        12.5486497400       10.0309863638       -2.2497197163
  S        19.8845493968       14.2762036517       -2.0679970856
  C        19.5133049139       16.9411582671       -2.5273152137
  H        10.3168410765       14.5443360380        8.9344918513
  H        10.5798193546       12.9462268004        9.5738512255
  C         8.8586657549       13.9809187116       10.3985095722
  H        19.7219450838       12.7728753851       14.1575307683
  H        18.8126411177       13.4804121946       15.4579415705
  C        20.4968424106       14.6352360984       14.7091842974
  S        14.1969138807        5.8482981406       15.0450157731
  N        13.6887691220        6.2326133921       16.4934826667
  C        13.3659916162        8.3876904110       17.7337303661
  H        13.1754184831       10.3916893540       18.4957407821
  C        20.0331953043       14.9957913420       -3.6834880249
  N        19.8490551163       16.3516504666       -3.6744963416
  O        19.1789997515       18.1319946496       -2.3731206325
  H         8.7689395710       13.4984597255       11.4133533209
  H         8.5785541232       15.0341065933       10.4845709176
  C         8.0236084841       13.2865470807        9.3888233604
  H        21.2841222742       14.1167332109       15.2621460627
  H        20.9490030410       14.7846636110       13.7386290549
  C        20.1656242895       16.0640384854       15.1552513070
  C        13.0169681379        7.6647139975       18.9386107738
  S        20.4572518689       14.2420993960       -5.2227934988
  C        20.0652110307       17.2174786743       -4.8010232075
  H         8.4617965015       13.2281105817        8.4055849456
  H         7.8070784355       12.3203822279        9.7462316630
  C         6.6626238423       13.9587254665        9.1554898883
  H        19.2303479527       15.9919397442       15.7129827716
  H        19.8108955793       16.6583805214       14.3615179952
  C        21.2633418873       16.7348367959       15.8908840069
  H        13.3865515559        6.6706046221       19.0013810781
  C        12.4288958090        8.0489867956       20.0846974125
  H        20.7215467936       16.6379312870       -5.4313087585
  H        20.3903836448       18.2633868226       -4.6890197516
  C        18.7355376047       17.2202821151       -5.5506820115
  H         6.0568602947       13.5238798572        8.3545273872
  H         6.8304155913       15.0295127209        8.8981875656
  C         5.6095021414       13.7775908836       10.3220959152
  H        20.7781458590       17.6630113820       16.2719147078
  H        21.6623565033       16.1033351965       16.7143118911
  C        22.5176096400       17.1384282834       15.0920193751
  S        11.7196033483        9.5596566281       20.5446069150
  C        12.4934249377        7.1007561809       21.2253662039
  H        17.9731697792       17.6350821587       -4.9348015179
  H        18.4718850639       16.1540692397       -5.8104929034
  H        18.8253667206       17.7152245099       -6.5091892444
  H         5.9547725446       13.9165743235       11.2940245275
  H         4.7768345844       14.5702913817       10.2118642629
  H         5.0540774302       12.8839232549       10.2908172935
  H        23.3619903753       17.3152833549       15.7664731602
  H        22.8645806537       16.2915836865       14.5093018977
  H        22.3927032128       17.9556840187       14.4005033002
  C        11.5916356305        8.9369218022       22.1750540400
  N        11.8529501387        7.6344004608       22.2680440073
  O        12.8086172454        5.9001511686       21.2041494455
  S        11.1469863163        9.8034011254       23.6503213627
  C        11.6526338580        6.9688978610       23.4791860145
  H        11.6208363184        5.8964046656       23.2409382217
  H        10.7746700122        7.3374342858       23.9092199697
  C        12.8210182281        7.3559982835       24.4535309691
  H        13.4291266010        8.1505171750       23.9009929173
  H        13.5632460191        6.6598019744       24.8857082797
  H        12.4059597121        7.9146454762       25.2635498379
