352
 i =    57200, time =    57200.000, E =        25.1180236605
  H        10.5852184009        4.7927712330       31.5717513087
  C        10.6135732273        5.8679323076       31.8454679382
  H         9.5430440760        6.2412691961       31.6995888851
  C        11.5495033641        6.6967488291       30.9783106248
  C        11.1075183316        5.8671716995       33.2589778370
  C        11.8961919652        5.9018087613       29.7741942642
  H        11.0459523788        7.6365452489       30.6832213438
  H        12.4862847084        7.0130629751       31.5142985641
  H        12.1875484135        5.6012010862       33.3144461011
  H        10.8494754898        6.7592010779       33.8591658065
  H        10.5324189771        5.1168458829       33.7393937340
  C        10.6539323450        5.4793187060       28.9415513955
  H        12.6175585632        5.0684212776       30.0487958156
  H        12.4549277952        6.5565491155       29.0848098973
  C        10.9544612231        5.6528568323       27.4501730770
  H        10.3811598886        4.4406088634       29.0489586063
  H         9.8242846150        6.1501450534       29.2362682614
  C         9.8146594243        5.0350259157       26.6424570695
  H        11.7953131459        5.0552238849       27.1901656394
  H        11.1352235761        6.6758019062       27.2169870854
  C         8.5889952750        5.8505188927       26.0283213455
  H        10.3008958292        4.4643299348       25.8814451336
  H         9.4090518627        4.3183049018       27.3469859828
  C         7.5036761314        5.0479770199       25.2747045600
  H         8.0947661663        6.2628558519       26.9224455606
  H         8.9535182701        6.6733997036       25.3858568151
  C         7.1726101999        3.7434463368       25.9192055643
  C         7.8902023104        4.2431722698       24.0484986961
  C         6.3068125217        5.8807890661       25.0469376879
  C         7.2658587050        2.6115951529       25.1621756772
  C         6.7346238271        3.4181379213       27.2383048255
  C         7.7512835514        2.9440930035       23.9120925286
  C         8.4743160992        4.9149176049       22.9794391464
  H         6.2139713725        5.9485114226       23.9619605029
  H         6.4678806261        6.8486661351       25.5230567830
  C         4.9527146568        5.3198228451       25.4967714618
  S         6.7950402737        1.1816424502       25.9284996442
  C         6.6102107240        2.0374398882       27.4419434686
  H         6.4553360174        4.2247171959       27.9305495435
  C         8.0953950081        2.2852901095       22.7714274664
  H         8.6378964634        5.9993925661       22.9751369613
  C         8.7140173662        4.3032256253       21.7761877741
  H         4.8011298554        4.3001407903       25.1933083941
  H         4.9268665023        5.3923218726       26.5716322587
  C         3.6692607774        6.0730672338       25.1364025077
  C         6.0935068146        1.3552911325       28.7444845905
  C         8.5549962660        2.9816129180       21.6020173041
  H         7.7615604379        1.2815605380       22.7426328718
  C         9.0896549593        4.6701287276       20.5133119618
  H         3.3201989001        5.7236300473       24.1810786448
  H         4.0583297919        7.1083115242       25.0225907049
  C         2.6230893891        6.2380073619       26.2779171462
  C         6.0887187359        0.0098442578       29.0403512635
  C         5.7176198152        2.1695052515       29.8824495443
  C         8.8565542352        2.2222597075       20.3936563005
  C         9.2099168818        3.5651407303       19.6805165482
  S         9.3104483177        6.1439215260       19.7155335513
  H         1.8279189291        6.9571936459       25.9762172385
  H         3.0550218577        6.6929354486       27.1934511703
  C         1.8700313001        4.9794925796       26.7773478929
  N         6.5397178972       -0.9324993877       28.0517650649
  C         5.7858788377       -0.5632873357       30.2714056599
  C         5.2038820153        1.6280682974       31.1016306025
  H         5.6504188796        3.2437887348       29.7264534203
  C         7.7307465726        1.3832870903       19.8556006529
  C        10.1878111136        1.4420287791       20.4820874571
  C         9.5920557969        3.9321025351       18.4163170635
  C         9.6599750981        5.2782381607       18.2655311579
  H         0.9630974603        4.8357909002       26.1329646403
  H         2.4266783641        4.0195766057       26.5659909424
  C         1.5340038669        4.9257459564       28.2227010621
  S         6.4837767056       -2.4177030934       28.7805993498
  N         6.0496760504       -1.9875539546       30.2642417359
  C         5.4445619605        0.1857776149       31.4325084035
  H         4.9330790943        2.2833179147       31.9488127225
  H         7.8432753493        0.5434321234       20.5843986063
  H         7.9601855396        0.9320915995       18.8868358895
  C         6.3340946587        1.9932119511       19.8595678753
  H        10.3702505399        0.8050999615       19.6156231532
  H        10.0544236440        0.7738341130       21.4243860891
  C        11.4418962888        2.2578041841       20.8168787661
  H         9.6148977706        3.2068393549       17.6175958307
  C         9.9360312591        6.0504723424       16.9448279037
  H         0.7203912459        4.1963840963       28.4174970584
  H         0.9939613270        5.8220290729       28.5567779290
  C         2.5845537819        4.5053724842       29.2096319403
  C         5.1386833292       -0.4800686569       32.6821105959
  H         6.1862200390        2.9573533285       20.2068930089
  H         5.7976566507        1.3553599226       20.5806687078
  C         5.7940652724        1.7276875890       18.4678983908
  H        11.2369517959        2.7391189406       21.7713939053
  H        11.6535060367        3.0836509957       20.1332051950
  C        12.7005226424        1.3933801055       20.8809691702
  C        10.0376753060        7.4595692875       16.8071001972
  C        10.2953602104        5.2925273684       15.7569455618
  H         2.9713512362        3.5403707086       28.9153442668
  H         3.4783791322        5.2024059146       29.1618050964
  C         2.2245198051        4.6333948560       30.7231453890
  H         5.3134564411       -1.5617772371       32.6668399826
  C         4.8533527457       -0.0097045583       33.9404326501
  H         6.0002751898        0.7061257734       18.1726512555
  H         6.4414985523        2.3458035481       17.8363257610
  C         4.3511512451        2.2190596285       18.3362991101
  H        12.5857458791        0.6140031660       21.6682903963
  H        12.8500140198        0.7131806412       20.1028102501
  C        14.0612170903        2.1455305066       21.0320486428
  N         9.9275920401        8.4339834829       17.8393052289
  C        10.3841721630        8.0384164650       15.6382508283
  C        10.6727848681        5.9362828990       14.5732102563
  H        10.2107468609        4.2554909400       15.8082538036
  H         1.5413098850        3.8275139440       31.1551146988
  H         3.1392898552        4.6001542039       31.3032730097
  H         1.7912661402        5.6016252260       31.0050655798
  S         4.3969703557        1.5992775109       34.3731651516
  C         4.8535590736       -0.9899864800       35.0984168409
  H         4.1698891935        2.9230509590       19.0365903312
  H         4.0001271846        2.6774208062       17.4447162396
  C         3.2474963901        1.2180009018       18.8036604371
  H        13.8903531437        3.1526108755       20.6811086340
  H        14.8210800670        1.8250928603       20.3677329542
  C        14.4906724000        2.3353498771       22.4911886565
  S        10.0246298599        9.9299285266       17.1764672024
  N        10.3490111344        9.4175068975       15.6842379792
  C        10.6100731794        7.3862177243       14.4331985458
  H        11.0442507991        5.3899029051       13.7213889344
  C         4.2516447708        0.9929858470       36.0044431457
  N         4.5215358667       -0.3253740861       36.1873494341
  O         5.1866961737       -2.1492728334       34.9875043818
  H         2.3408486063        1.8328134709       18.8782639891
  H         3.5650632015        0.8495835394       19.7820593572
  C         3.2200671750        0.0879767235       17.7380702006
  H        13.6643296681        2.8990598233       22.9925824556
  H        14.5020339447        1.3833450756       23.0168005696
  C        15.7769903632        3.2373173296       22.6365525221
  C        11.0842774641        8.2290105836       13.3596394058
  S         3.8832034079        1.9090729610       37.4956534798
  C         4.4554575887       -0.9539533665       37.5218108018
  H         2.5169944014        0.4526816899       16.9266773727
  H         4.1597177835       -0.0909354591       17.2588209956
  C         2.4744036207       -1.1975238763       18.2514179877
  H        15.6006159094        4.1409058321       23.1886978302
  H        16.1556895775        3.4719874017       21.6113773236
  C        16.9270455742        2.4996159991       23.3224252479
  H        10.8477179211        9.2692087029       13.3926369360
  C        11.6387916715        7.8429233649       12.1604657698
  H         4.0464535019       -0.3600313110       38.3256265755
  H         3.7682343336       -1.8554904101       37.4420562759
  C         5.9108529714       -1.2811896792       37.9682505741
  H         1.6026374092       -0.8079225498       18.8230077125
  H         3.1328317708       -1.6550052160       19.0163059472
  C         2.0985200058       -2.1575405681       17.1324474280
  H        17.1326649172        2.9722515445       24.2683289555
  H        16.6200115507        1.4343427357       23.5129375723
  C        18.1449243518        2.3674263929       22.5337368631
  S        12.2596675293        6.2399153023       11.7964447753
  C        11.7764305986        8.7999338178       11.0608349007
  H         6.6593808675       -0.9707116272       37.2139510207
  H         6.2785001190       -0.7469947772       38.8925636578
  H         6.1037575119       -2.3526927289       38.0415745213
  H         2.9574529536       -2.8198978385       16.8727340748
  H         1.6096444010       -1.7626839403       16.2540964247
  H         1.2796167042       -2.8156654251       17.5254729015
  H        18.6878029168        3.3424075318       22.4879658703
  H        18.0946248577        1.8561793450       21.5913065333
  H        18.7348372249        1.8137768907       23.2400049464
  C        12.7451135774        6.9415315374       10.3295555538
  N        12.4667571878        8.2456363117       10.0827914791
  O        11.3623192910        9.9603375424       11.1770688243
  S        13.2829194642        6.0396127273        8.9837189671
  C        12.6909285087        8.9392344266        8.8377961030
  H        12.7329861250        9.9329489185        9.0870361891
  H        13.5966188840        8.5997713238        8.3730437286
  C        11.5016782129        8.7309312334        7.8393872993
  H        11.9795825541        8.4630790380        6.8756485161
  H        10.8161190921        7.9353267614        8.1463023895
  H        10.7971334473        9.5849988895        7.6194755493
  H        22.1723859274        9.2155580122        3.1017922021
  C        22.2431008544       10.2104669799        3.3862489753
  H        22.8781381402       10.7139412331        2.6157280765
  C        22.8998383036       10.3477060308        4.6879895567
  C        20.8039526451       10.6856036852        3.2443719381
  C        21.9994202030       10.5040383844        5.9343959958
  H        23.6065103846        9.5301376433        4.9009918235
  H        23.6349525405       11.1822406022        4.7613832098
  H        20.6302356665       11.5920189714        3.8320240078
  H        20.0762778817        9.8792327774        3.5047408753
  H        20.6596780563       10.9007027268        2.1816551030
  C        21.2603692514        9.2557108057        6.3433807399
  H        22.6588733266       10.6829740786        6.8071706645
  H        21.2885597318       11.2795283771        5.8157851299
  C        20.3732161428        9.4432485526        7.5649429876
  H        22.0497567978        8.6859148593        6.8115824344
  H        20.9337460849        8.5587681011        5.5470897832
  C        19.1682767560       10.3574381905        7.4045480547
  H        20.9501294833        9.7019507713        8.4676737252
  H        20.1247623890        8.4218177946        7.8565913439
  C        17.8262904565        9.6576925557        7.0167864530
  H        19.0124917916       10.8924662080        8.3289591825
  H        19.3527539373       11.0887988008        6.6636312868
  C        16.6567136626       10.6556078385        6.8445931570
  H        17.4826696214        9.0153461125        7.9370637986
  H        18.0094177246        9.0181714598        6.1093555039
  C        17.0851871034       12.0268343867        6.1966966896
  C        16.2784490215       11.3874340591        8.1135176275
  C        15.5105681722       10.0618675521        5.9492014332
  C        16.8687302274       13.0856441076        7.0048527094
  C        17.4819299767       12.4056425519        4.8866936702
  C        16.3586715387       12.7540957560        8.2141762493
  C        15.8103936985       10.7499719935        9.2298941964
  H        15.8214347073        9.7105718705        4.9665688334
  H        15.2093625997        9.1077738203        6.5470537494
  C        14.3566412344       11.0511294791        5.6973245931
  S        17.3571452359       14.5532802106        6.3074791138
  C        17.6184508922       13.7420279204        4.8240833753
  H        17.6812177738       11.6251562854        4.1691349603
  C        15.8865900319       13.3579205204        9.3690213893
  H        15.7581129369        9.6968318747        9.1604021992
  C        15.3074518941       11.3730127142       10.3699966235
  H        14.7102657499       11.8870858208        5.1071588428
  H        14.0474357798       11.4382196621        6.6478944278
  C        13.2802147224       10.2918303329        4.8693190335
  C        18.0855279863       14.4334246684        3.5934848534
  C        15.3917977935       12.6891865280       10.5124599901
  H        15.9777394577       14.4176063007        9.4898636717
  C        14.8165625676       11.0283808245       11.6119618494
  H        12.2818645871       10.5788961961        5.0865523459
  H        13.3392011457        9.2517898949        5.1394780486
  C        13.6334442383       10.6114729932        3.3796676748
  C        18.1066315991       15.7782302772        3.4415056904
  C        18.5230603940       13.5893577096        2.4041881051
  C        14.9699550344       13.4518667019       11.7882151475
  C        14.6613003129       12.1045787640       12.4564054514
  S        14.6091899146        9.4683109277       12.3839896348
  H        14.7228299675       10.6591144262        3.2219019459
  H        13.2973162829       11.6198116259        3.2294230180
  C        12.8143785632        9.7929756110        2.3632076249
  N        17.6582471318       16.6843599193        4.3767153929
  C        18.4797390797       16.3556554112        2.2757878722
  C        18.8322270331       14.1877117566        1.2135818838
  H        18.4442542315       12.5592081794        2.4752822730
  C        13.6691243910       14.3046145818       11.6166922934
  C        16.0858344321       14.2283566232       12.6023161446
  C        14.4265998764       11.6510067415       13.7901254585
  C        14.2802576709       10.2940335536       13.8750208878
  H        12.1033951606        9.1679604785        2.9236230898
  H        12.1995434738       10.4360998402        1.8858224888
  C        13.6707558000        9.1457866409        1.3081112172
  S        17.6535050228       18.1635773602        3.7646370793
  N        18.2989590890       17.7514846300        2.3031947139
  C        18.7726705722       15.6308811258        1.1331072246
  H        18.9801283379       13.5768410490        0.3413052118
  H        14.0915165867       15.2265941753       11.0358008215
  H        13.3689496727       14.7639230013       12.4923217394
  C        12.5315724843       13.5672824608       10.9303206931
  H        16.5134048771       14.9478477977       11.9123113423
  H        15.6192001753       14.6404445083       13.5312274176
  C        17.3751316981       13.4582977849       12.9251064094
  H        14.3675454744       12.4342967817       14.5314736114
  C        14.0147039252        9.5987275739       15.2305624297
  H        13.1056284743        8.3676453433        0.8802845069
  H        14.4803049907        8.6117796181        1.7532035894
  C        14.1507396991       10.0915696476        0.1949296827
  C        18.8906711067       16.3792873077       -0.0961420293
  H        12.7854035901       13.4094013600        9.8925008056
  H        12.4887574129       12.6066941523       11.3403767092
  C        11.2633470103       14.3311928937       11.0025949754
  H        18.0863599484       13.4957166509       12.0513165933
  H        17.2139424669       12.3574281561       13.1685940197
  C        18.0464442124       13.9953004811       14.2136631418
  C        13.9699157429        8.1809510770       15.4140990930
  C        13.8340872810       10.3760110648       16.4638458943
  H        14.5016041301       11.1400623282        0.5269630155
  H        14.9613051374        9.6588633864       -0.3293970012
  C        13.0791176066       10.4402354094       -0.8203900525
  H        18.5654042569       17.3810739970       -0.0628305819
  C        19.1728866435       16.0626771267       -1.4032222697
  H        11.2360577555       15.0998252033       10.3175945803
  H        11.1017171257       14.9360558924       11.9022863440
  C        10.0545936848       13.3828278771       11.1067927988
  H        18.1989697283       15.1418249715       14.1773396768
  H        17.3248875257       13.9025304675       15.0144143089
  C        19.2558211876       13.2137484935       14.7794506893
  N        14.1198201908        7.3742935349       14.3201614783
  C        13.7192803547        7.5332979623       16.6242513105
  C        13.3473615628        9.7302648950       17.6541275572
  H        13.7945679041       11.4674633010       16.4340837951
  H        12.8268045883        9.5414181572       -1.3384608087
  H        13.3566587614       11.2034380695       -1.4830784830
  H        12.0857196160       10.7447845759       -0.4577645793
  S        19.5941101500       14.5008395187       -2.0132924005
  C        19.1041792954       17.1412193561       -2.3854176401
  H        10.3432531871       12.4554761086       10.6739025941
  H        10.0237088563       13.1090169588       12.1241214337
  C         8.7761641025       14.0695933835       10.5405139668
  H        19.0365225749       12.1865691092       14.5151763957
  H        19.3457448484       13.3776144900       15.9264429845
  C        20.6041116711       13.4354874488       14.1304078042
  S        14.2758334278        5.8195315734       14.9444680724
  N        13.9375008650        6.1400711426       16.5233217744
  C        13.2693211802        8.2132399748       17.7915410360
  H        13.0834771675       10.3404698692       18.4405542869
  C        19.7062527705       15.3023998420       -3.6183746775
  N        19.3832174098       16.6361928068       -3.5931852842
  O        18.8301944362       18.2790627431       -2.0749654327
  H         8.1153164768       14.2882908782       11.3427338942
  H         9.0813144391       14.9526780223       10.0024952894
  C         8.0753779874       13.2362382438        9.4945854871
  H        21.1312765153       12.5787721572       14.2889419469
  H        20.3720037414       13.5475131714       13.1041415910
  C        21.5585246311       14.4937337513       14.6925710691
  C        12.9662807805        7.4563317642       18.9383885199
  S        19.9423728855       14.5091096178       -5.2142175186
  C        19.3059711724       17.4918218452       -4.7885679139
  H         8.7647591197       13.0754380219        8.7141684828
  H         7.7545730744       12.2725219405        9.8228026493
  C         6.8662896427       13.9217935763        8.8691278534
  H        22.4117130131       14.3850921383       14.0060728147
  H        21.7034719576       14.3504840195       15.7403484592
  C        21.0630710420       15.8813330350       14.3285459768
  H        13.0598919546        6.3349534088       18.8236010246
  C        12.6264932427        7.7847716347       20.2710665343
  H        19.8811729159       17.1017863918       -5.6756699942
  H        19.8228054351       18.4603147171       -4.5242478390
  C        17.8294809492       17.5481970010       -5.3241976247
  H         6.5791551927       13.4040087870        7.9343637248
  H         7.2236887523       14.9355657521        8.8012149442
  C         5.6393199741       13.9266029048        9.7327240108
  H        20.6816418364       15.8994297111       13.2441106324
  H        20.1714018242       16.0725571846       14.8930804690
  C        22.1027333839       16.9881763541       14.5465951198
  S        12.2160685367        9.2824711969       21.0081147932
  C        12.4420071825        6.7111035976       21.2115605878
  H        17.5766219277       18.5582035705       -5.5918608741
  H        17.0362523597       17.2483422519       -4.6272712080
  H        17.7068890856       16.8915608042       -6.2135891310
  H         5.7810722450       14.6521311027       10.4996064104
  H         4.6810788250       14.1374508816        9.2133051094
  H         5.4397757085       13.0031085673       10.4179068248
  H        22.4445401274       17.4150198154       13.5397771712
  H        21.8405736946       17.8089631470       15.2136678890
  H        23.0056045021       16.4743686674       14.8809931349
  C        12.0981652114        8.4685233839       22.5373395155
  N        12.0053538181        7.1055506475       22.4262309411
  O        12.5977945052        5.4978938261       20.9306591305
  S        11.6902897373        9.1701785477       24.1234303853
  C        11.8190381957        6.2134909332       23.5869266376
  H        11.6264475300        5.2500962164       23.2227198222
  H        10.9981514237        6.6617400955       24.0508349252
  C        13.1152951706        5.9913126524       24.4376323373
  H        13.9579332587        5.9158807915       23.7143982064
  H        13.0820249774        5.1598743015       25.0870924815
  H        13.2689358182        6.8450048181       25.1006003891
