352
 i =     3200, time =     3200.000, E =        39.2915989741
  H        11.9881449442        6.4961375700       31.8628385667
  C        11.6322434206        5.4746815951       32.0649984538
  H        12.3640065428        4.9184030526       31.6809352782
  C        10.4249951063        5.3797400617       31.1143460156
  C        11.2070342097        5.2064784691       33.5774178544
  C        10.9863641578        5.2227726097       29.7014007116
  H         9.8737994227        4.5457798755       31.3591092162
  H         9.7956013431        6.2564972887       31.2718091384
  H        11.6322148545        6.0046977364       34.1721569496
  H        10.1446236596        5.1827151158       33.6682956041
  H        11.7088678995        4.3234791982       33.9341509668
  C         9.8609003441        5.2802743691       28.6036139155
  H        11.5068836169        4.2781404567       29.5739358177
  H        11.7447846956        6.0609574571       29.6705890596
  C        10.4773097079        5.5004977483       27.1612571611
  H         9.1478178321        4.4285885158       28.6357677652
  H         9.2832063762        6.2181169711       28.7628429752
  C         9.4462935826        5.0365465872       26.0627997749
  H        11.1753403114        4.6575264915       26.9222253976
  H        11.1042044109        6.4485471092       27.1793597699
  C         8.1498986498        5.9479114559       25.9292507960
  H         9.9231418264        4.8052446357       25.1167715414
  H         9.2189406720        4.0344752223       26.2586433161
  C         7.0342157624        5.1318369268       25.2881719197
  H         7.8346739590        6.4351395964       26.8308154085
  H         8.5130502686        6.7603430421       25.2336672305
  C         6.6615975345        3.7757699388       26.0575426649
  C         7.5731387295        4.4656951936       24.1383142223
  C         5.6348434302        5.9381717531       25.2311883251
  C         6.9808644736        2.7292427521       25.2082656024
  C         6.1698895477        3.4325464680       27.2798535651
  C         7.5511711163        3.1547405842       24.0691350481
  C         8.0456035492        5.1597069384       23.0262918573
  H         5.7124302887        7.0057064049       24.7303416739
  H         5.3914300284        6.2772479261       26.2280662337
  C         4.5854345370        5.1592752540       24.5249157224
  S         6.6833489176        1.2887236235       26.1216962797
  C         6.0267476139        2.1131982455       27.4715257146
  H         5.8546814282        4.1877705540       27.9917847083
  C         7.9275985780        2.5108734147       22.9262580328
  H         8.1409582063        6.2380942325       23.1530570210
  C         8.4373721755        4.4932284913       21.8952789424
  H         4.9286391530        5.0021723469       23.5454068391
  H         4.3767515331        4.2241653127       24.9838676632
  C         3.2853059460        6.0256720170       24.4061277081
  C         5.7070887005        1.3598964421       28.7642237719
  C         8.3764763301        3.1461122884       21.8135926990
  H         7.8932000646        1.4579492349       22.9220304518
  C         8.8519042360        4.8225935795       20.6274648687
  H         2.6068888491        5.4534112107       23.8422828956
  H         3.5719329441        6.8432982468       23.8487218943
  C         2.5710206232        6.3838847881       25.7088717907
  C         5.8213211943       -0.0705500266       28.9422662818
  C         5.2282610313        2.2312924453       29.8943641738
  C         8.6652973238        2.4449593286       20.5111942669
  C         8.9886681621        3.7216312204       19.7802979619
  S         9.0953327567        6.2874443781       19.8197513762
  H         1.7733854369        7.0374255091       25.4631894719
  H         3.2286167810        6.7254590174       26.5087314618
  C         2.0991539540        5.1033664812       26.4022569540
  N         6.2153138436       -1.0704212736       28.0006703396
  C         5.6438878593       -0.6306688534       30.1540976763
  C         4.9870282871        1.5462247392       31.0775114790
  H         5.1387759351        3.3564826519       29.8051813286
  C         7.6197289066        1.5797672278       19.7758992471
  C        10.0150046349        1.7259878928       20.5711937796
  C         9.5052541587        4.1555122013       18.5090609901
  C         9.6668359304        5.5405491786       18.4041791191
  H         1.6013184411        4.5182579293       25.7168146563
  H         2.9905747150        4.6312703274       26.7764556761
  C         1.2032909624        5.2771430459       27.6263345150
  S         6.2472833663       -2.5007874483       28.6869667100
  N         5.7337931241       -2.0633867021       30.1676491411
  C         5.2131750474        0.0770896273       31.2996970266
  H         4.6500397210        2.0888380745       31.8993088345
  H         7.1322981407        0.8858225200       20.4920610727
  H         8.1289189873        0.9189165250       19.0520754585
  C         6.4819775424        2.4323813857       19.2639852073
  H        10.4032496294        1.4339718200       19.6413572237
  H        10.0187678394        0.8526086136       21.1814560435
  C        11.1804200570        2.5847413703       21.1797944617
  H         9.8013978619        3.4868672777       17.7335896252
  C         9.9765196303        6.2721648941       17.1235580949
  H         0.5236619714        4.4101690498       27.8392572510
  H         0.3549011259        5.9286916271       27.3788595080
  C         1.8777550620        5.3893756000       28.9033814746
  C         4.9262393628       -0.6332790132       32.5014560606
  H         6.8731894851        3.0984027688       18.5469104310
  H         6.0030498083        2.9745134701       20.1034944428
  C         5.4828662910        1.5371909567       18.4735151351
  H        10.8592335106        2.9585259617       22.1494544388
  H        11.4237798461        3.4119710348       20.5468540787
  C        12.3646315555        1.5779405043       21.4640989810
  C         9.9686036334        7.6905862951       16.9267565654
  C        10.2133736826        5.5084642974       15.8727602285
  H         2.3728878271        4.4910129196       29.2867421832
  H         2.5302433453        6.2718612939       28.7798677781
  C         0.9162985907        5.6801416195       30.0001852907
  H         4.7778099330       -1.7810036729       32.4225567711
  C         4.5190623036       -0.2013904625       33.7492166548
  H         4.7910147596        0.9816370313       19.0867910107
  H         5.9854806064        0.7528400162       17.8247721053
  C         4.4674643887        2.4140115873       17.6275809647
  H        12.0245323345        0.9862433219       22.3426080947
  H        12.3768538078        0.7628146147       20.7269795736
  C        13.6667935785        2.3414390902       21.6135657019
  N         9.5241040800        8.6308149266       17.8619011712
  C        10.2910853707        8.2477713111       15.7262844094
  C        10.4518282544        6.0074945340       14.6578001696
  H         9.8947329315        4.4892322770       15.9371577688
  H         1.4720549305        5.5073326380       30.9588609621
  H         0.6808264058        6.6226759663       30.0436689243
  H        -0.0232134387        5.0359871543       30.0012222452
  S         4.2627469605        1.3863536098       34.2753933947
  C         4.4283782052       -1.2690040868       34.8047463301
  H         4.6595080855        3.3975635975       18.0778604836
  H         4.6955028730        2.6496507195       16.6128674587
  C         3.0067271103        1.8511110787       17.8706364791
  H        13.2792370165        3.2663862063       22.0146048869
  H        14.0584997836        2.5408889758       20.5895924067
  C        14.8476505820        1.6746352548       22.2967788563
  S         9.6228037672       10.0701076701       17.2372146371
  N        10.0742999458        9.5920195866       15.7194830852
  C        10.6150046237        7.5203696823       14.5469157891
  H        10.3001526222        5.3641124711       13.8506467881
  C         4.0213322551        0.7005946199       35.8794933822
  N         4.2220478496       -0.6377797226       35.9691410364
  O         4.8075674058       -2.4610672141       34.6323930368
  H         2.3400135906        2.5320590039       17.3492819022
  H         2.6292779327        2.0607204967       18.8486477140
  C         2.7982240697        0.3155155214       17.4913949863
  H        14.4021009993        0.8227389824       22.9061384154
  H        15.4374790858        1.1250326366       21.5436216877
  C        15.6247215772        2.6499418657       23.0647373672
  C        10.9346589670        8.2881235028       13.3954798197
  S         4.0590845089        1.6547419148       37.3269227450
  C         4.1117175994       -1.3361814264       37.2644140582
  H         2.1867601987        0.3204175747       16.6302812921
  H         3.8024328352       -0.1538726155       17.1522764045
  C         2.0845161641       -0.5749708043       18.6441041516
  H        14.9823252246        2.8687264023       23.9430700513
  H        15.6902527514        3.4921939642       22.4145523194
  C        16.9910517411        2.0977832154       23.5563985368
  H        10.5130314839        9.2376844507       13.3806687699
  C        11.3642881483        7.9340555056       12.1335001292
  H         3.3419725102       -0.9878733006       37.8358688906
  H         3.9527419604       -2.3390525516       37.0078337261
  C         5.4785320294       -1.3879419322       38.0169476220
  H         1.0238216567       -0.4886594675       18.4599151688
  H         2.2503620624       -0.4434195908       19.6846917542
  C         2.3628332981       -2.0354967567       18.3629537580
  H        17.4418432410        2.3082460998       24.5201381364
  H        16.8773635366        1.0015162945       23.6478762405
  C        18.0001585501        2.3302852596       22.4801733951
  S        11.9283161027        6.3106055941       11.6258444276
  C        11.5748807507        9.0041789505       11.0649109967
  H         5.4828281776       -1.4977593407       39.1000407945
  H         5.9573795339       -2.3313624495       37.6323997396
  H         6.1284969677       -0.5570036692       37.5701722772
  H         3.2126874542       -2.5742610551       18.8922289371
  H         2.6195945216       -2.3249079857       17.2977569953
  H         1.3995604320       -2.5080793678       18.5212232029
  H        18.8929753828        1.9680076642       22.8958820816
  H        18.2781525523        3.3792315270       22.2524614584
  H        17.8017828026        1.9226739526       21.4478389333
  C        12.3447538164        7.0656807134       10.1095764933
  N        12.1873034775        8.3902032144       10.0218159180
  O        11.4784055595       10.2352460987       11.2905937130
  S        12.6405222860        6.1767215809        8.7372695929
  C        12.5021632317        9.2962372779        8.9129733613
  H        12.6341055487       10.3234226615        9.2157922125
  H        13.4474009367        9.0121985347        8.3290411307
  C        11.1941645391        9.4756703433        8.0353958090
  H        10.9434868853        8.5409186592        7.6236531409
  H        10.3336051254        9.8811118742        8.4810198084
  H        11.3673466028       10.1239970164        7.1917320978
  H        21.7230394330       11.3320354934        3.8152186074
  C        22.1507540575       10.3055109345        3.7634472681
  H        21.1756124449        9.6917231489        3.8571303412
  C        23.0829880760        9.8921285932        4.9623260697
  C        22.9884137660        9.9855127978        2.5358010872
  C        22.3771735884       10.3992118006        6.2512465212
  H        23.1783390437        8.8247131307        4.9289553854
  H        23.9867607930       10.3358165380        4.6582644884
  H        23.9634082663       10.4172806400        2.6178796321
  H        22.3427834294       10.3190095166        1.6812279557
  H        23.1770013950        8.8705448028        2.4285371954
  C        21.3582684860        9.3069920964        6.7755033879
  H        23.1515358352       10.4833441400        7.0583288581
  H        21.8901477318       11.3351761358        5.9768381670
  C        20.4074334345        9.6116953001        7.9863093134
  H        21.9795790452        8.5161199852        6.9803815311
  H        20.6633570041        8.9728233685        6.0219145421
  C        19.3137361547       10.5720700438        7.6755035988
  H        20.9160959351       10.1248892924        8.8543663626
  H        19.9547502414        8.7155266937        8.3593321785
  C        18.0787511068        9.8501923798        7.1370496775
  H        18.9597861432       11.0159224224        8.5313005200
  H        19.5739895812       11.4408349037        7.1367854978
  C        16.8170935634       10.7261755704        6.8822892198
  H        17.6630364120        9.1017081933        7.8618208795
  H        18.1005033581        9.4044018380        6.1191080621
  C        17.1395417172       12.0666807195        6.1962982191
  C        16.3166388869       11.3710584424        8.0979555997
  C        15.6415742632        9.8669883403        6.1337131672
  C        16.7470227633       13.1265648364        6.9660425064
  C        17.7472867157       12.4691763824        4.9584428628
  C        16.3293449497       12.7190950646        8.1829279648
  C        15.8661757410       10.6986349732        9.2674377479
  H        16.1412186101        9.4908024864        5.2282461524
  H        15.4276797586        9.0701790859        6.8521246491
  C        14.5253562816       10.7766533000        5.5962536310
  S        17.1047848983       14.6438469385        6.2192564609
  C        17.6601900224       13.8364321202        4.7702332205
  H        18.0863432741       11.7669723790        4.2657805497
  C        15.8366691656       13.3938188099        9.2775162458
  H        15.6289782775        9.6890852396        9.2362844848
  C        15.4329721784       11.3532674757       10.3552054603
  H        14.8151930826       11.6288515320        5.0323094503
  H        14.0367219887       11.3075518546        6.4604739136
  C        13.6115050691       10.0347836506        4.6936657766
  C        18.1970254088       14.5157982106        3.5029764909
  C        15.3898692911       12.6621781979       10.4131574311
  H        15.7959043975       14.4433842361        9.3631865089
  C        15.0159278725       10.9672449219       11.6031793398
  H        12.7994456422       10.7565913607        4.4335191876
  H        13.1956848695        9.1766077803        5.1039470477
  C        14.3056992809        9.9170687861        3.2799222302
  C        18.0182226803       15.9169187186        3.1643744208
  C        18.5727551329       13.6676683036        2.3317357454
  C        14.9443675324       13.4256743345       11.6830717512
  C        14.8282799659       12.0758517621       12.4598933291
  S        14.7446036182        9.4646135128       12.4711791250
  H        14.8879412422        9.0065883847        3.2165648232
  H        15.0722905976       10.7960724531        3.0518927634
  C        13.2388253148        9.5603669874        2.1220948296
  N        17.5883121398       16.9865681526        4.0138092063
  C        18.3756310772       16.4620490195        1.9265818610
  C        18.9379084123       14.2311738185        1.1254323767
  H        18.8207627813       12.6744039223        2.5251880502
  C        13.6152940154       14.1422041505       11.4020946947
  C        16.0067085487       14.3773931109       12.3579055951
  C        14.3351216272       11.7576133105       13.7016828328
  C        14.2221567424       10.4134894233       13.8669291516
  H        13.1838076233        8.4245953876        1.9562729478
  H        12.1753519736        9.7239962695        2.3525010851
  C        13.4818564988       10.2714905277        0.8251438197
  S        17.6038384573       18.4504229551        3.2324558415
  N        18.2484623236       17.8781091053        1.9183790080
  C        18.8954181509       15.7195571278        0.8692347667
  H        19.3838361515       13.6753907704        0.2823277822
  H        13.7860358846       14.9393338803       10.6088825405
  H        13.2849600121       14.8451748829       12.1266320729
  C        12.4404960931       13.2057413392       11.0027380459
  H        16.5649301293       14.9880022302       11.6188843593
  H        15.5903948397       15.0894969607       13.0882233529
  C        17.1600825781       13.5491212886       13.1027004188
  H        14.0440607378       12.5407697122       14.4050817625
  C        13.7742823755        9.7386763922       15.0952326530
  H        14.5252681686       10.0231922414        0.4729259331
  H        13.5050620936       11.3218975114        1.0994007749
  C        12.6040733007        9.8545119662       -0.2970729909
  C        19.1642105978       16.4066286890       -0.3885764465
  H        12.6003527922       12.6394518234       10.0729808214
  H        12.3368290255       12.4367703587       11.7900096842
  C        11.0709399262       13.8474315187       10.9484701013
  H        17.6895131448       12.8689338795       12.5011664357
  H        16.7620170854       13.0615532954       13.9682358773
  C        18.2048919318       14.4226806956       13.6396409946
  C        13.9707887066        8.3316319905       15.4481303406
  C        13.4260490944       10.5646633662       16.3112057596
  H        12.8705161337        8.8725921367       -0.6851990729
  H        11.5982340527        9.7600687775        0.1074257149
  C        12.7313446320       10.6609398353       -1.6092261646
  H        18.7562537355       17.4079422310       -0.4449715497
  C        19.5108233091       16.1269395348       -1.6723098162
  H        11.2561394308       14.8868664275       10.5701529845
  H        10.6827065893       14.0330308580       11.9493513062
  C        10.0949080604       13.2452898749        9.9914505476
  H        18.7979533351       14.7811548203       12.7551425625
  H        17.8504155066       15.3252081114       13.9743631254
  C        19.1726308010       13.6811842164       14.5936427913
  N        14.2186102729        7.3357401617       14.4542178543
  C        13.5876221584        7.6989248073       16.6593938621
  C        13.2092755751        9.9563891998       17.5874817941
  H        13.2397775942       11.6366123863       16.2827140275
  H        11.8361470422       10.8761614025       -2.1437185028
  H        13.3503839681       10.1340592528       -2.3462687271
  H        13.1747820152       11.6081604093       -1.4738428384
  S        19.8042727135       14.5976978744       -2.2856814200
  C        19.5305966425       17.1966276333       -2.6975364479
  H        10.3120091366       13.1532944134        8.9189784780
  H         9.9138444233       12.1150284322       10.2117845312
  C         8.7684294836       13.8797051253        9.9842248426
  H        19.2319162495       12.5499006649       14.4243495627
  H        18.7287144049       13.9390317199       15.5850877240
  C        20.6202514948       14.2529639191       14.6065755940
  S        14.0685569445        5.8297713172       15.1131498623
  N        13.6425282153        6.2925341832       16.6413082789
  C        13.2775138796        8.5036703346       17.8038351370
  H        12.9672001020       10.5279141824       18.5281665539
  C        19.9651986416       15.3933790749       -3.8099792932
  N        19.8932663360       16.7187376265       -3.8400666318
  O        19.6408279014       18.3949934375       -2.4242823716
  H         8.3655925260       13.8705976409       11.0391048810
  H         9.0548019993       14.9357562000        9.5257072981
  C         7.8122307486       13.2131242859        8.9862113870
  H        21.1946399727       13.9356884915       15.4655604733
  H        21.2524964260       14.1074432492       13.7425271311
  C        20.7347678416       15.7573938382       15.1064817855
  C        12.9977147049        7.8029134561       18.9537752097
  S        20.2205835993       14.6517468721       -5.3168330970
  C        19.7927055059       17.4975176136       -4.9862816865
  H         8.1865953201       13.3318477567        7.9347972098
  H         7.6362474686       12.1481985631        9.3263995069
  C         6.4838762805       13.9533723025        9.0049763927
  H        21.2798975690       15.8006328623       16.0759800502
  H        19.8471238269       16.2975453282       15.4173492911
  C        21.5556626812       16.5371995156       14.1628256638
  H        13.5634946240        6.8700596899       18.9766443355
  C        12.2726177764        8.0659823678       20.1199324657
  H        20.4589938271       17.2696543018       -5.7757067269
  H        20.0534975802       18.4998926933       -4.6752986418
  C        18.3797121801       17.3650813723       -5.5548020781
  H         5.7215305622       13.5903019754        8.2419418831
  H         6.5626229142       14.9451228663        8.6200928881
  C         5.7793590571       14.0574380943       10.4036944768
  H        22.5141857382       16.1245444128       14.2002041581
  H        21.1857897337       16.7053613952       13.1487924280
  C        21.7704916775       17.9751961444       14.5732634957
  S        11.4940955561        9.5999145581       20.3726879526
  C        12.1029480145        7.0226735189       21.1689044278
  H        17.6058693127       17.6023036424       -4.9318356286
  H        18.1879560952       16.4190550039       -5.9216576165
  H        18.3442210305       18.1320168740       -6.3156918104
  H         4.6875329707       14.1550991057       10.3409023828
  H         5.8465430311       13.2736509561       11.1686190878
  H         6.0928224671       14.9452604793       10.7893954092
  H        22.4007804515       18.3966097111       13.8607079510
  H        20.9153443716       18.5193829073       14.7454227686
  H        22.2174985287       17.9291107449       15.5349204568
  C        11.0219251600        8.8799718322       21.9311940184
  N        11.3670236944        7.5679160380       22.1573869523
  O        12.7202136552        5.9586403528       21.2185765099
  S        10.3233779813        9.8831435718       23.2240140473
  C        11.2189498058        6.8729971606       23.4788451414
  H        10.7730680748        5.9029878894       23.4065722325
  H        10.5797275754        7.4505221523       24.1808043742
  C        12.5724609530        6.9628615595       24.1659813531
  H        13.0568371159        7.8366694310       23.9426425464
  H        13.1731259235        6.0796445174       23.8675253149
  H        12.4380952470        6.9071015045       25.1583615302
