352
 i =     1800, time =     1800.000, E =        47.2591493376
  H        12.0378516624        6.9544977730       32.4637445897
  C        11.5336568889        5.9442063672       32.3610207430
  H        12.2412099376        5.0431147798       32.2925458046
  C        10.4651865987        5.9194992283       31.2098772487
  C        10.9056129456        5.6993767097       33.7521014173
  C        11.0049063864        5.9800440737       29.8736559455
  H         9.8709856591        5.0264488816       31.4126830677
  H         9.6977540777        6.6616161025       31.4668008650
  H        11.7712992101        5.9050814202       34.4655599524
  H        10.0890838537        6.4966222536       34.0499860005
  H        10.5442957754        4.6191695111       33.9236706706
  C         9.9476200007        5.5673531981       28.7965153696
  H        12.0501508142        5.5604739652       29.7403796906
  H        11.1879866671        7.0159546329       29.5360149707
  C        10.5884419278        6.0496547730       27.5193663863
  H         9.8412349146        4.5118631255       29.0119994476
  H         8.9051165633        5.9828898567       28.8396896863
  C         9.8776430588        5.2178349487       26.4336631449
  H        11.6582684367        5.8133859696       27.3751048458
  H        10.6514549441        7.1681477853       27.4703636297
  C         8.6905602724        5.9520361867       26.0399624208
  H        10.4055240576        5.2034890580       25.4447128946
  H         9.9333820524        4.2304487919       26.7243262488
  C         7.5738585661        5.0393246711       25.3941178698
  H         8.1208230906        6.5185897474       26.8035745061
  H         9.0424793448        6.8080868078       25.4010007937
  C         7.1952544082        3.6504422128       26.0192177918
  C         8.0119513992        4.2938254941       24.1122053694
  C         6.2581225132        5.8810781232       25.1377718425
  C         7.3311885679        2.5191933575       25.1867620858
  C         6.7417404524        3.2156945541       27.2928796086
  C         7.9047868328        2.9469904769       24.0038716309
  C         8.3854931571        5.0384546546       22.9696155864
  H         6.6077945416        6.6770376549       24.5658257865
  H         6.0666842493        6.3951360824       26.0683942468
  C         5.0503625886        5.1699891391       24.5241516259
  S         6.7317685712        1.0568246899       25.8364089437
  C         6.3395427316        1.8940885710       27.3281929168
  H         6.7652530154        3.9951014096       28.0744244683
  C         8.1142123128        2.3419710863       22.7965954487
  H         8.1488065358        6.1323029592       22.9783653979
  C         8.6823602757        4.4177276910       21.8389975163
  H         5.2120686632        4.5906457486       23.5811544359
  H         4.8084698702        4.2249806960       25.0757256674
  C         3.9036940888        5.9979249391       24.2654637372
  C         5.7271679861        1.2773362032       28.5392950740
  C         8.5957527627        3.0931026444       21.6961341468
  H         7.9276311237        1.2310308988       22.4670270838
  C         9.0898629684        4.7895891369       20.5385529924
  H         3.4238117908        5.9652544496       23.3295558543
  H         4.1954722760        7.0512577198       24.1726148117
  C         3.0301997219        6.1178216913       25.5924212373
  C         5.7913953404       -0.1370232482       28.8197541498
  C         5.3052082251        2.1745775948       29.6404692705
  C         9.0415929926        2.4861949450       20.3350918698
  C         9.2392757400        3.7257135024       19.6598841313
  S         9.4105971719        6.3092933505       19.8678091862
  H         2.3968874267        7.0430799293       25.5983785827
  H         3.7295518941        6.1778110826       26.3508870761
  C         1.9553456023        5.0376886710       25.7955748086
  N         6.2424141012       -1.0841940246       27.9599344022
  C         5.4965560631       -0.6008581237       30.1642007214
  C         4.7430341853        1.6069130638       30.7756264359
  H         5.2741665846        3.2034303098       29.4967133891
  C         8.0258007308        1.6856750978       19.6645859990
  C        10.4512988366        1.8295655444       20.6769445072
  C         9.4488465742        4.1700148502       18.3152548822
  C         9.5565041645        5.5901914916       18.3031342901
  H         1.1991954943        5.0953356016       25.0105254717
  H         2.4089954529        4.0199693400       25.7276575948
  C         1.1711237725        4.9692517708       27.1515205133
  S         6.2665701888       -2.4962389663       28.8339055311
  N         5.6656830756       -1.9667466248       30.2590823376
  C         4.9670714052        0.1847776678       31.2439669635
  H         4.5908142569        2.2333040464       31.6025798531
  H         7.7903518976        0.7978565488       20.3073773371
  H         8.3629590773        1.1944186246       18.7989234233
  C         6.7191454443        2.4037017945       19.2948248410
  H        10.9210837773        1.3612534299       19.7542737028
  H        10.3455072116        1.0098681258       21.5040620313
  C        11.6766745119        2.7597560219       20.9394355944
  H         9.4686530904        3.4746415516       17.5012464321
  C         9.9536484367        6.4213656703       17.0998672649
  H         1.1221016761        3.8998179570       27.3293393866
  H         0.1772147711        5.3183627401       27.0455882277
  C         1.9582011803        5.4573185444       28.3384824904
  C         4.8310518577       -0.4058447313       32.4784941952
  H         6.8295075464        3.1188991591       18.4694681560
  H         6.3923975464        3.0046051437       20.0837111760
  C         5.5893644848        1.4677698310       18.7674526902
  H        11.4044215670        3.4560769830       21.7246656170
  H        11.9848568111        3.1192346382       19.9648376118
  C        12.8805226473        1.9322563495       21.1987494433
  C        10.0320464265        7.7950790335       16.9873024303
  C        10.0694650758        5.6816206536       15.7823437888
  H         2.8820518202        4.8298401993       28.5422455007
  H         2.2723589375        6.4354029259       28.2011741654
  C         1.2255439447        5.6226103274       29.6555099918
  H         4.7732229179       -1.5127427306       32.3460568035
  C         4.5242260117        0.1615251033       33.7118522925
  H         5.2123627566        0.6383677228       19.4497621296
  H         5.8887697300        1.0343557194       17.8240272769
  C         4.4578321734        2.2879267373       18.0580151486
  H        12.6819608141        1.0209360714       21.8116405810
  H        13.2609378675        1.5929562341       20.2423939337
  C        13.9198446365        2.7910181879       22.0892343439
  N         9.9531144907        8.6762821467       18.0480537909
  C        10.3278913225        8.4824633990       15.8792623374
  C        10.5067367289        6.3867503977       14.7148103345
  H         9.8301359262        4.6368472567       15.7569976177
  H         1.7337785005        5.6913186553       30.6392077044
  H         0.5093162703        6.6001327164       29.6133299869
  H         0.4170092774        4.8249327411       29.7970619142
  S         4.1711099077        1.8184489909       34.1861897085
  C         4.5459948674       -0.7998283796       34.8014975571
  H         4.4065116565        3.3282637423       18.2719189302
  H         4.3505556134        2.2755945745       16.9831820323
  C         3.1432839044        1.8506483345       18.5182043154
  H        13.4859354958        3.2131636992       23.0307333074
  H        14.4825146968        3.4945275576       21.5447804358
  C        15.0762622306        1.8346074294       22.5680010302
  S         9.8237024681       10.2422023495       17.4634342518
  N        10.2859268168        9.8560430899       16.0014896686
  C        10.7542468466        7.8093497317       14.7101222401
  H        10.8066756809        5.9649339478       13.7918669129
  C         4.0446311243        1.0988616008       35.7510264695
  N         4.1895974654       -0.2185817171       35.9197243801
  O         4.6565483029       -2.0063469972       34.6038525481
  H         2.3891155105        2.5913258043       17.9928426901
  H         3.0276347607        1.9238072755       19.6015236034
  C         2.5715613721        0.4602002521       18.0521678057
  H        14.7254720220        1.2412448608       23.3898803386
  H        15.2569336600        1.2065141880       21.6947144861
  C        16.3999067085        2.4683209421       22.9892747010
  C        11.0295000345        8.5887071720       13.5465676240
  S         3.6509791321        2.0651911871       37.2240810419
  C         4.1318492946       -0.9192696311       37.1343310364
  H         1.6494696986        0.5743289260       17.4081744486
  H         3.3358564604        0.2823962793       17.3206121454
  C         2.4726890545       -0.5853585752       19.2115315385
  H        16.1660966629        2.9626666523       23.9031847710
  H        16.6541842051        3.2777472126       22.3827397963
  C        17.6885643933        1.6796429486       23.1341661803
  H        10.5541685280        9.5183062397       13.5903056180
  C        11.6484250592        8.2240684100       12.4008540452
  H         3.4754692598       -0.5407496433       37.8822290874
  H         3.7238598698       -1.9019560473       36.9407672554
  C         5.5578838997       -0.9855273357       37.8740105793
  H         1.7926008584       -0.3807437529       19.9659598812
  H         3.3485010046       -0.9093787881       19.5843087472
  C         2.1751650750       -1.9036973527       18.4455734666
  H        18.3798992150        2.1262309927       23.7890943404
  H        17.3518783677        0.7716221590       23.5523510285
  C        18.3110974011        1.5680586527       21.7281016981
  S        12.2266496860        6.6757100813       11.8798267425
  C        11.6171765397        9.2646855341       11.2895352227
  H         6.3830261290       -1.2668581040       37.1035964768
  H         5.8890838338        0.0138442340       38.1418308697
  H         5.5959438462       -1.5596671065       38.8190403370
  H         1.4177265841       -2.2931075454       19.1251146640
  H         3.0823381773       -2.5600081949       18.5375368809
  H         2.1159665601       -1.6031697926       17.3857192097
  H        17.6175962171        1.4578536600       20.9172966985
  H        18.9046966562        0.6554328350       21.7952265171
  H        19.0331473019        2.4970101043       21.7104697845
  C        12.6055895441        7.4833764220       10.3691912674
  N        12.2593962360        8.7311916921       10.2433648448
  O        11.0446053892       10.3712619056       11.4360012989
  S        13.4192695849        6.6818264469        9.0453310557
  C        12.4623049303        9.5189648456        9.0082549843
  H        12.1892597296       10.5729264305        9.2359021703
  H        13.4233557953        9.4256078151        8.5418942772
  C        11.3779886870        9.0884615156        7.9816636692
  H        11.7745143180        8.2637443342        7.4294142565
  H        10.5139009039        8.7360654440        8.5926644805
  H        11.0500241343        9.9453461599        7.3599867777
  H        21.3516432230       10.7737243460        3.9126272297
  C        22.0539386531       10.1401772903        3.9228112420
  H        21.7754396951        9.2180807978        3.8371401474
  C        22.8326036179       10.5026871394        5.2727740667
  C        22.9527560342       10.2215775876        2.6472980743
  C        21.8027434697       10.8013036076        6.3859552112
  H        23.4830167539        9.6395547817        5.4615714760
  H        23.4638515865       11.4040015828        5.2001666041
  H        23.5417209088       11.1683169219        2.7054077722
  H        22.2414089100       10.3677669554        1.8395924361
  H        23.4862301077        9.2952492349        2.4659994963
  C        21.0948898511        9.6530005098        6.8467929823
  H        22.4629779784       11.2151733253        7.2311960142
  H        21.1494810883       11.6014254435        6.0517062710
  C        20.1576740013       10.0391270911        8.0574265346
  H        21.7623305955        8.7928642251        7.0217681932
  H        20.7093788502        9.1948328321        5.9802304089
  C        19.0698773872       11.0150504396        7.7273977674
  H        20.7656310369       10.2204868168        8.9106738222
  H        19.7787499457        9.1685521278        8.5915580077
  C        17.9032335773       10.4128928107        6.9503398189
  H        18.6558039632       11.4559283250        8.5839910475
  H        19.4579918964       11.8527882628        7.0474181361
  C        16.5922048191       11.2453199654        6.8217122467
  H        17.8198270517        9.5003433316        7.5514725364
  H        18.1731614021       10.0748885327        6.0546302899
  C        16.8646381752       12.5842826780        6.0312376402
  C        16.2787492565       11.9732964855        8.1141234431
  C        15.4677407738       10.3845201809        6.0755635462
  C        16.6209285201       13.6591654860        6.8397146854
  C        17.3335535438       12.8963724964        4.7704227350
  C        16.2401961450       13.3137295112        8.1502335281
  C        15.9198575208       11.2233085036        9.2359476057
  H        15.9142529344        9.8843511742        5.1697687153
  H        15.1649778967        9.6126512356        6.7519299102
  C        14.2696314087       11.2457149135        5.6091117533
  S        16.8814377039       15.1370597796        6.0235909477
  C        17.4640395980       14.2530653987        4.6557179124
  H        17.6193655276       12.1398635509        4.0753948544
  C        15.7874760738       13.9183768364        9.3165693406
  H        16.1699406337       10.1378969316        9.0014183943
  C        15.4909601917       11.8357127719       10.4052691460
  H        14.6243205153       12.1244659177        5.1547553771
  H        13.6455208792       11.5323445315        6.4844796397
  C        13.4363275225       10.5006161111        4.5924999253
  C        17.9151327092       14.8581684904        3.3409530459
  C        15.3802802166       13.1716254247       10.3947568155
  H        15.8499884294       14.9604383161        9.4462429947
  C        15.1233842426       11.4525198523       11.6504362428
  H        12.5021678864       10.8607735403        4.5658697048
  H        13.3034800140        9.4950915776        4.9073245296
  C        13.9974613495       10.7627897818        3.1944230471
  C        17.9492654956       16.2289900314        3.0202429864
  C        18.3041026303       13.9934244832        2.2043871111
  C        14.9201489740       13.8270993912       11.6802583845
  C        14.6201758961       12.4906571357       12.3934284927
  S        14.9078147410        9.9389534470       12.3519135051
  H        15.0393914929       10.9703366168        3.2443490808
  H        13.5523678101       11.7007192866        3.0305891052
  C        13.5841311784        9.7120637493        2.2509528844
  N        17.8706944606       17.1650160439        3.9916675559
  C        18.3946477360       16.7311930691        1.8332267523
  C        18.6007353229       14.5401875694        0.9140706217
  H        18.3641595376       12.9201615422        2.2515466434
  C        13.7046815317       14.6667916228       11.5274058777
  C        16.1164561367       14.6932601875       12.2664697874
  C        14.1499397227       11.9941206550       13.6076435697
  C        14.3716156702       10.6330730372       13.7706474355
  H        14.2218549932        8.8145257019        2.2873874711
  H        12.5071668033        9.5262232882        2.3055889472
  C        13.8489195381       10.2022359054        0.7036101247
  S        17.9744605211       18.5690323579        3.3033050304
  N        18.4629077856       18.1142738948        1.8606170038
  C        18.5498515316       15.9588909124        0.6474600856
  H        18.8024188595       13.8801893616        0.1091552266
  H        13.7971484963       15.3131696584       10.5603786477
  H        13.4191325536       15.2669089798       12.3805761262
  C        12.4706225622       13.7922507835       11.1434959664
  H        16.5750212107       15.3263211473       11.5496153216
  H        15.7340239820       15.2144851339       13.2257812688
  C        17.1458190148       13.6953961830       12.9346859901
  H        13.5830122247       12.6996963480       14.2686252785
  C        13.9886078824        9.8712388785       14.9777326900
  H        14.8380072326        9.8781984709        0.3249896409
  H        13.8562793305       11.2892328626        0.7325234410
  C        12.6016911048        9.9360239697       -0.1055040943
  C        18.8160048715       16.6370828188       -0.5783208916
  H        12.8183762021       13.2788937432       10.2687541494
  H        12.2984724864       13.1391681445       11.9479325428
  C        11.2757146859       14.6939232259       10.7771668929
  H        17.7189989722       13.1311191201       12.2184191335
  H        16.7658187352       13.0106796687       13.5791979981
  C        18.2628717826       14.4025163765       13.6664732318
  C        14.0271758400        8.4298853454       15.1417298408
  C        13.6587703433       10.6792943751       16.1746930646
  H        12.2037166333        8.8357176579       -0.1173346166
  H        11.8815397937       10.5738582880        0.3253152471
  C        12.6969831782       10.3429683410       -1.5432913852
  H        18.6668542861       17.7363037081       -0.7220522566
  C        19.2620184351       16.1505200397       -1.7876402090
  H        11.6528064321       15.3013209742        9.8956467682
  H        11.1462102604       15.3637982480       11.5511799188
  C         9.9672799286       13.8402699986       10.3903285097
  H        18.8018201988       15.2085293724       13.1132866351
  H        17.8661003891       15.0486437857       14.5183083527
  C        19.3501114466       13.5409724557       14.3682150750
  N        14.2431023007        7.6387104858       14.0781279805
  C        13.7069050629        7.8752674182       16.3295479819
  C        13.4584685533       10.0521560119       17.4026569762
  H        13.7077542440       11.7358203318       16.0948444346
  H        11.8318942012       10.4263388957       -2.0897570996
  H        13.3514382476        9.6338245595       -2.0095077503
  H        13.1143931795       11.3622318330       -1.6285323116
  S        19.5700558076       14.5112231709       -2.2680227643
  C        19.6201680380       17.1857084884       -2.8442323246
  H        10.4082171479       13.2278181284        9.6617903515
  H         9.6302595869       13.3603347259       11.3107366815
  C         8.7833353653       14.6682750968        9.8019705708
  H        19.2451201858       12.6264315520       13.7344601313
  H        18.9580216104       13.1543685497       15.2398456481
  C        20.7361605691       14.0816254920       14.3793955902
  S        14.0254935590        6.1542228010       14.6946655846
  N        13.6338156639        6.4770025393       16.2620488458
  C        13.4520561982        8.5997558074       17.5550717504
  H        13.2385197900       10.6768596833       18.2854879044
  C        19.9893599698       15.1395459043       -3.8545272803
  N        19.8943202056       16.4883826601       -4.0530297453
  O        19.5153302608       18.4265979951       -2.7809947080
  H         8.5635013953       15.4389813286       10.6624340822
  H         9.2311150698       15.2493179164        9.1283883542
  C         7.7312642075       13.6305783719        9.3858080470
  H        21.4027341967       13.2249828728       14.6554595283
  H        20.9663213862       14.2078972611       13.2778185567
  C        21.0105908616       15.4014254161       15.0440580220
  C        13.1218697072        7.8094299563       18.7528680056
  S        20.2944754515       14.0698610836       -5.3441584314
  C        19.9428863234       17.1381947850       -5.3617693532
  H         8.1538741807       13.2337012368        8.3840280755
  H         7.7458996433       12.9232220546       10.2051943566
  C         6.3831169943       14.2456293087        9.1684265715
  H        21.4675038664       15.3689460117       15.8261528982
  H        20.0941820635       15.7674267433       15.0791656403
  C        21.7000450621       16.4757330192       14.1679547897
  H        13.3449050257        6.7107067666       18.6460601163
  C        12.5767971940        8.1334134710       20.0241666663
  H        20.9781826832       17.0102682938       -5.8007757450
  H        20.0198488279       18.2392315077       -5.2704900824
  C        18.6593790110       16.8530265345       -6.1785158064
  H         5.9398706452       13.6338811477        8.3685598578
  H         6.3962476859       15.2831350534        8.9528416728
  C         5.6257449270       14.1768936296       10.5237777219
  H        22.7902923160       15.9271841706       14.0225350326
  H        21.1334816727       16.4000589005       13.2001302048
  C        21.9901212443       17.7830760312       14.7990818402
  S        11.9588248370        9.7432716115       20.4329390336
  C        12.3643172105        7.0203515947       20.9634819285
  H        18.5531517913       17.5982287471       -6.8518603852
  H        17.8564388959       16.5392044400       -5.6610206411
  H        18.8754769053       15.9612474864       -6.7597487504
  H         4.9661591076       14.9479848755       10.6302809963
  H         5.2698259792       13.2100669089       10.6302085975
  H         6.3392304364       14.4021068066       11.4236665822
  H        22.4231759595       18.3191982286       14.0671047067
  H        21.1682035187       18.3007804546       15.2740993745
  H        22.6750588998       17.4902665321       15.5776450765
  C        11.4578848377        8.8530958317       21.8617262165
  N        11.7852907010        7.5340881964       22.0499752406
  O        12.8098028340        5.8470712071       20.9328876936
  S        10.6461572523        9.7354994069       23.2775990918
  C        11.4435953075        6.7743276053       23.2475755068
  H        10.9285716686        5.9439575458       22.7881851176
  H        10.7498826121        7.0599789671       24.0432024016
  C        12.7524917474        6.4122184482       23.9434883252
  H        12.7649143126        6.1955119848       24.9236261971
  H        13.3486043858        7.2055734360       23.8171326951
  H        13.1087574726        5.4744276989       23.5017194240
