352
 i =    92400, time =    92400.000, E =        24.7789877733
  H        10.3091283169        7.0958877927       31.1935895725
  C        11.2465847748        6.9651884668       31.6344110635
  H        11.6277898708        7.8605663211       32.0927274514
  C        12.1196028783        6.4194914756       30.5619801234
  C        11.1463719658        6.0821621964       32.8728014215
  C        11.4384815058        5.2429024439       29.8601104150
  H        12.3124579382        7.1846888118       29.7978279171
  H        13.0834535288        6.0782376111       30.9406620000
  H        12.0985834673        5.6597725807       33.1023817282
  H        10.8783784345        6.6448082210       33.7124525219
  H        10.3779650526        5.3100078487       32.6933297935
  C        10.4116050804        5.6431476383       28.7949443407
  H        10.7776979122        4.6683518830       30.5318324653
  H        12.2398766460        4.6521199057       29.4286132486
  C        10.8693567858        5.3939045821       27.3628429975
  H         9.5029418449        5.0211983097       28.9847700243
  H         9.9777177758        6.6833475008       28.9230602423
  C         9.8325513189        4.6109492628       26.6092060479
  H        11.7221514810        4.7105988072       27.3996102051
  H        11.1861634344        6.3129780878       26.7875315904
  C         8.7089200505        5.6004714506       26.2565279691
  H        10.3558145230        4.1955313535       25.6833484736
  H         9.4499519980        3.8450019090       27.2277154542
  C         7.4602738044        4.9477592125       25.7182584696
  H         8.3658405105        6.2184096103       27.1025994367
  H         9.0666825032        6.2556858532       25.4651912045
  C         7.0879837523        3.6482961714       26.3828638652
  C         7.9702097265        4.2525169742       24.4580686385
  C         6.3145274340        5.8436429535       25.2195344381
  C         7.3204508298        2.5437089886       25.5898122417
  C         6.7164573756        3.2601137900       27.6674385623
  C         7.8392679531        2.9073728076       24.3380150797
  C         8.3909275742        4.9298503890       23.3325331651
  H         5.7039140734        5.2221788406       24.5384063222
  H         6.6361153398        6.6576806021       24.5506964342
  C         5.3533408795        6.2092212696       26.3101480923
  S         6.9995813809        0.9923857425       26.3725284424
  C         6.5376929143        1.8808263474       27.8309476525
  H         6.6133144949        4.0388859603       28.4440213814
  C         8.2262134543        2.2529374136       23.1992077234
  H         8.3414015134        5.9620133775       23.3411475504
  C         8.7024656718        4.3116115395       22.1722208163
  H         5.6278265737        5.6597874262       27.2478352872
  H         5.4330200293        7.2355343164       26.5935899381
  C         3.9514421529        5.9257204183       25.8751226776
  C         6.0516949436        1.2016052522       29.1056185670
  C         8.6398366736        2.9442722237       22.0798705906
  H         7.9950777776        1.1741524107       23.2656212867
  C         9.0205800657        4.6342886333       20.8958477261
  H         3.8378250318        4.8628171605       25.5733853343
  H         3.6272721547        6.4412392836       25.0035242993
  C         2.9681664518        6.2515614385       26.9872362301
  C         6.0059990943       -0.1683490571       29.3718718523
  C         5.4937435912        2.0635259159       30.2012407415
  C         8.9046114029        2.2339706152       20.7691196011
  C         9.2711842143        3.5785880901       20.0638336038
  S         9.2091665036        6.1448773814       20.0676120233
  H         2.2301381719        6.9994785105       26.5861660718
  H         3.5215361955        6.8115702925       27.6804469280
  C         2.4864940413        4.9441226689       27.5455056697
  N         6.7485231624       -1.0993771869       28.5845250439
  C         5.6798217816       -0.7124586903       30.6317877669
  C         5.2701371475        1.5824367540       31.4730914794
  H         5.5157217021        3.1518586512       30.1014759177
  C         7.7645539038        1.4996346908       20.1435084652
  C        10.0878705071        1.2664472334       20.9548461869
  C         9.6136526273        3.9931321311       18.8101869690
  C         9.7651838663        5.3622493720       18.6508145053
  H         1.9695977401        4.3773223244       26.8235607915
  H         3.2934769400        4.3136074847       27.9562328358
  C         1.3311107030        5.1131219432       28.6084653811
  S         6.6134989986       -2.6019018324       29.2927029409
  N         5.8808170713       -2.1312053752       30.6500821234
  C         5.3503779422        0.0843842366       31.7473359445
  H         5.0629798248        2.3328165702       32.2383170988
  H         7.2353284251        0.7378281751       20.8379341651
  H         8.0608871420        0.8877017364       19.2550243323
  C         6.6197116951        2.3603934950       19.8633234793
  H        10.2943085348        0.7621993924       20.0133218844
  H         9.6321860673        0.5037525039       21.6171486609
  C        11.4139200828        1.9040594658       21.3491358589
  H         9.7793987945        3.2476299399       18.0114634707
  C        10.1146238330        6.1073854168       17.3674288953
  H         0.9092126650        4.1560816993       28.8102566960
  H         0.5619858031        5.7607034732       28.2264739103
  C         1.7523051576        5.6396645875       29.8871500597
  C         5.1312232991       -0.6249057879       32.9700835243
  H         6.9423043405        2.9640463621       19.0818382531
  H         6.2865000161        3.0653405948       20.6970567184
  C         5.4926845003        1.5038201114       19.4677263088
  H        11.2268556108        2.3734745206       22.3173860573
  H        11.6892251070        2.5417828920       20.5617876095
  C        12.6053836724        1.0293993549       21.6490171699
  C        10.1983338935        7.5536672162       17.2791663912
  C        10.3015264215        5.3653707911       16.0947669995
  H         1.7483122678        6.7408230483       29.6126367201
  H         0.9884697710        5.4864842067       30.6080906415
  C         3.1413515589        5.3219594134       30.4310641739
  H         5.1346455131       -1.6178504978       32.8816760884
  C         4.7929690928       -0.1492092733       34.1967988131
  H         5.1658953367        0.9062834229       20.3454019786
  H         5.7286179188        0.8365017080       18.6702608962
  C         4.3588161905        2.3889907869       18.9575557620
  H        12.4063886357        0.4888928055       22.5344542129
  H        12.7210054458        0.3596786737       20.8218428590
  C        13.8147240789        1.9131210431       21.8759625299
  N         9.9919877420        8.5146142267       18.2787020238
  C        10.5258116176        8.1743306312       16.1144447580
  C        10.4828186839        5.9868643837       14.8660568199
  H        10.1645340583        4.2767360915       16.0964697293
  H         3.2238587597        5.3610251721       31.5079540334
  H         3.4735220264        4.3448175352       30.0168053438
  H         3.8096246727        6.1494163067       30.0126261179
  S         4.4068326793        1.4713385808       34.7717294314
  C         4.7611487084       -1.1905871854       35.2602026661
  H         4.1502762670        3.1739963173       19.7209649291
  H         4.6899921465        2.8714463036       18.0535914759
  C         3.1031557135        1.6303244231       18.9458480952
  H        13.3256374608        2.7496582259       22.4363586472
  H        14.0759532678        2.2577208862       20.8763919298
  C        14.8718715066        1.2115165512       22.6862754350
  S        10.3536318269       10.0831325759       17.7310542615
  N        10.7639880950        9.5752465942       16.2401181052
  C        10.6750182422        7.4496921819       14.9023109479
  H        10.4732707790        5.3155607186       13.9505814700
  C         4.0432269414        0.7373294744       36.3131128757
  N         4.2539192541       -0.5964963557       36.3540604116
  O         5.0170250086       -2.4087679389       35.1535491008
  H         2.3324781020        2.3615134198       18.6983728889
  H         2.7586695087        1.3663364378       19.9302187349
  C         3.0236679863        0.4435931147       18.0002812568
  H        14.4236235104        0.6276522596       23.4540585900
  H        15.4032347652        0.5709471999       22.0768408806
  C        15.8730418091        2.2049236331       23.2974392471
  C        10.8979651634        8.2026321650       13.7136275821
  S         3.7795487145        1.5836029632       37.7804727336
  C         4.4180799753       -1.3901031916       37.6073284615
  H         3.0006808018        0.8627019535       16.9327954161
  H         3.9030676100       -0.1757059217       18.1703572313
  C         1.7895311467       -0.3747641221       18.3641269068
  H        15.4732362793        2.7393659494       24.1715875375
  H        16.1613864257        3.0553684522       22.6589192865
  C        17.1257794355        1.7122016446       23.9069587873
  H        10.6728673007        9.2217666792       13.8175291392
  C        11.3830514773        7.9640290081       12.4297135534
  H         3.6668982367       -1.0797158629       38.3323919336
  H         4.3398981842       -2.4773945034       37.4245629915
  C         5.7048080160       -1.1222328462       38.3452386189
  H         0.9965470482        0.3552461250       18.3436575749
  H         1.8231266298       -0.8265471303       19.2614363276
  C         1.6508972105       -1.4752529743       17.3699961274
  H        17.7169739833        2.4053112674       24.5292792438
  H        16.9738531111        0.8690269019       24.5481242247
  C        18.1768125402        1.4532310337       22.8190063528
  S        11.9829472902        6.5177015338       11.8305516499
  C        11.3407164833        9.0895090483       11.4689937640
  H         5.6022558756       -0.5079173724       39.1726973139
  H         6.1260150000       -1.9733362518       38.8331510828
  H         6.4225573640       -0.7306213292       37.6401322757
  H         2.6120007379       -1.9131066252       17.2305551465
  H         1.2103195773       -1.2167313836       16.3682157948
  H         1.0181344561       -2.2241676094       17.8115749319
  H        19.0825555337        0.9594837138       23.1665117743
  H        18.5263726993        2.4508700337       22.4057483204
  H        17.8102495859        0.8358373750       21.9748538429
  C        12.2730075504        7.3696746775       10.2703887751
  N        11.8640145272        8.6111564109       10.2804992902
  O        10.7668078033       10.1841068048       11.6579262027
  S        12.7242223920        6.5635354042        8.7283529828
  C        11.8518997221        9.5643214909        9.1597938928
  H        12.1173184490       10.5861141405        9.5910781163
  H        12.6542361845        9.2154685520        8.4916329304
  C        10.5038845601        9.6668304236        8.4748871744
  H        10.5392927165        9.9172076167        7.4408318562
  H         9.9182479219        8.7968937227        8.3840341568
  H         9.9172030054       10.4028799327        8.9400105703
  H        21.2933792993       11.1979234190        3.3947475398
  C        21.6544823759       10.2166953257        3.3963459821
  H        20.7733825387        9.6516442140        3.6601736068
  C        22.7459829633       10.0883380958        4.4402098394
  C        22.1832192746        9.9037267367        1.9357087781
  C        22.2538367169       10.2106544750        5.8490275399
  H        23.2798141254        9.1831783529        4.2783158555
  H        23.4817621293       10.8882065076        4.2887773237
  H        22.2301130568        8.8664692110        1.7779428666
  H        23.1905835144       10.2780148250        1.8803439820
  H        21.6595929485       10.3400202331        1.1050465302
  C        21.5390858018        8.9229200218        6.2740385188
  H        23.1763431055       10.3394067199        6.4855587679
  H        21.6498389561       11.0987618226        5.9033532658
  C        20.3981000927        9.2534737463        7.2300575837
  H        22.2479734347        8.2777380751        6.7630966297
  H        21.2379747352        8.4306728447        5.4135563572
  C        19.0701649451        9.3800388459        6.4626296215
  H        20.6011992858       10.0945026269        7.8348008102
  H        20.1888016060        8.4633289488        7.9444709165
  C        17.8808291862        9.4726845642        7.4393967666
  H        19.1578066909       10.0667755998        5.6167593153
  H        18.8562575586        8.3947227945        6.0219611993
  C        16.5520335538       10.2462614510        7.1762835306
  H        18.3697876478        9.8947488338        8.3736391442
  H        17.6848028606        8.3896031268        7.6576356447
  C        16.9917543856       11.5856482221        6.4148684973
  C        16.1750655359       11.0076604360        8.3622641486
  C        15.5609436141        9.4248676489        6.2971848390
  C        16.7552775078       12.7026845581        7.2344014768
  C        17.5386970063       11.9544589346        5.1673957930
  C        16.1579639015       12.3253398359        8.4395215867
  C        15.6826343529       10.2976654214        9.4462773634
  H        16.1787254331        9.1244402082        5.4456709540
  H        15.1377713579        8.5959885029        6.8265251316
  C        14.4182257364       10.4160005239        5.9047022604
  S        17.3712426885       14.2166100852        6.5456684296
  C        17.5913095987       13.3428709215        5.0563960886
  H        17.6507346905       11.2063501880        4.4442076880
  C        15.8201023124       12.9661926508        9.6054182264
  H        15.6312593140        9.2081294297        9.3033931495
  C        15.3224333206       10.9738953038       10.6392826522
  H        14.7081121251       11.3841141934        5.5337213614
  H        13.7975952434       10.6472978939        6.8441189349
  C        13.5143049421        9.8273181139        4.7796712268
  C        18.1790767706       14.0703161980        3.8987698393
  C        15.3824983763       12.2932789050       10.7664309375
  H        15.8719953062       14.0729360873        9.5073430830
  C        14.9654810382       10.6052634843       11.9190409128
  H        12.6103139338       10.3420211385        4.7434813103
  H        13.3169991455        8.7722842195        4.9114181900
  C        14.0386126222       10.1028761614        3.3439493595
  C        18.1683667290       15.4617301568        3.7218805881
  C        18.6019671876       13.3917798423        2.6368302471
  C        15.1964991106       13.0586969943       12.1348282628
  C        14.9043033442       11.6931680125       12.8055941837
  S        14.6743523868        9.0935885470       12.6094375446
  H        14.8163601893        9.4215505889        2.9670527420
  H        14.4057295743       11.1529568417        3.3878118526
  C        12.9124986032       10.0147184382        2.3579618834
  N        17.8585663291       16.4263883684        4.7214064474
  C        18.5058412202       16.1220388053        2.5683827089
  C        18.9969364945       14.0480347946        1.4834142249
  H        18.6687606480       12.3256573311        2.6738318465
  C        13.9005900849       13.8791153506       12.0375238535
  C        16.4088307322       13.7309233796       12.8032733956
  C        14.6216876944       11.2292110002       14.1358865025
  C        14.4813263603        9.8685365532       14.1584753144
  H        12.1835874327        9.2713278659        2.7130524813
  H        12.2911698326       10.9481958692        2.3782020547
  C        13.2105762982        9.8377194016        0.8947196771
  S        18.1905800568       17.9085969092        4.1642400307
  N        18.6466822712       17.5413341040        2.6938445910
  C        18.9130102642       15.4696191485        1.3458419517
  H        19.3786208241       13.4772635482        0.6690651978
  H        14.1450442502       14.7512743571       11.4933268652
  H        13.7352368638       14.2467932995       13.0656720936
  C        12.7346971233       13.1952925099       11.4092489721
  H        16.6825716851       14.6175723172       12.2249499370
  H        16.1561364618       14.2314612778       13.7772189776
  C        17.6838018790       12.9019221350       13.0919442558
  H        14.6297896101       11.9572336791       14.9157715472
  C        14.1512632803        9.1246382221       15.4765745064
  H        13.7698164526        8.9358709474        0.8011319319
  H        13.7880514986       10.6650589661        0.5813235906
  C        11.9366831700        9.7464568632        0.0897548755
  C        19.1177524838       16.2167603750        0.1731323177
  H        12.8804607935       13.0831135304       10.3231360407
  H        12.4657049156       12.2640895766       11.8700908626
  C        11.5216105677       14.0636510741       11.5641937075
  H        17.9099193923       12.3479955420       12.1478979272
  H        17.5574003717       12.1715501787       13.8521532031
  C        18.8499364085       13.8797326851       13.4724336332
  C        13.9812935409        7.7529364000       15.6107958493
  C        13.9799834349        9.8499261724       16.7657494383
  H        11.6269609830        8.7179541351       -0.0735626311
  H        11.1058004063       10.2134335366        0.6444760226
  C        12.2254657603       10.3042380252       -1.3366439367
  H        19.2774637458       17.2978353389        0.2738181075
  C        19.4354510833       15.8611834581       -1.1378319545
  H        11.8964143125       14.9792395463       11.1943586032
  H        11.1619773453       14.1595158118       12.5749850183
  C        10.4754132606       13.5905384013       10.6049524002
  H        19.3613876557       14.3005956756       12.6334682031
  H        18.4498354423       14.7715655764       13.9540778230
  C        19.9285678006       13.2541529946       14.4438544672
  N        13.9406278111        6.8201231620       14.5563572718
  C        13.7401895653        7.1293552367       16.7989856988
  C        13.7342120431        9.2863102950       17.9982163393
  H        14.0548633405       10.9258150554       16.7843727298
  H        12.4219301734       11.3945224276       -1.3565751460
  H        11.3681345387       10.2574768878       -2.0025944882
  H        12.9869203660        9.6964297345       -1.8319790840
  S        19.5821134075       14.3123584814       -1.8360053141
  C        19.6211146187       17.0079327491       -2.1263974366
  H        10.1963925254       14.3339321106        9.8733118650
  H        10.7616334740       12.6961585565       10.0173050093
  C         9.1869908710       13.4347289430       11.3518346215
  H        20.6167956830       12.5543436456       13.9901888336
  H        19.3762682535       12.7151822094       15.2783054727
  C        20.7274880447       14.3870041560       15.1554084451
  S        14.0192756398        5.2789516918       15.1357638119
  N        13.7629399552        5.6828675473       16.6605188717
  C        13.5267058747        7.7721333521       18.0631407794
  H        13.7223846944        9.9103373389       18.8398314155
  C        19.8792414291       15.1595062958       -3.4121145330
  N        19.8855922813       16.4999359667       -3.3470578526
  O        19.4084016684       18.1726681857       -1.8538007889
  H         9.3017916052       12.5034019461       11.8762958603
  H         9.1198210254       14.3193560226       12.0955450071
  C         8.0708353272       13.4536834508       10.3409189868
  H        20.0660766393       15.1463160900       15.6320236846
  H        21.4055655218       13.8759024153       15.8450617514
  C        21.6310858344       15.1068405526       14.0916672390
  C        13.2249901927        7.0312821283       19.2305276489
  S        20.1481118188       14.4095612321       -5.0097444495
  C        19.8604947584       17.3430757051       -4.5015583909
  H         7.5654754877       14.3671486170       10.3837049087
  H         8.2743038227       13.3075355114        9.3319032333
  C         6.9781247561       12.5395853856       10.6561629114
  H        21.2221843687       15.0550883323       13.1078240678
  H        22.5983847441       14.6438559954       14.0430894670
  C        21.8992097730       16.5595215164       14.3328700062
  H        13.3715478168        5.9637549659       19.1168887938
  C        12.8227857617        7.3434151031       20.4734489967
  H        20.5993469646       17.1241827934       -5.2467609414
  H        20.1051650248       18.3801936128       -4.2351825343
  C        18.4692061997       17.3610218097       -5.1663769628
  H         6.8185440108       12.3820330736       11.7571981598
  H         7.1653912481       11.5600348223       10.2501765778
  C         5.6700949509       12.8966830494        9.9594208064
  H        22.7717814471       16.7787373128       13.6856652878
  H        21.0944671351       17.1974694767       13.8940670523
  C        22.2444106118       16.9301898680       15.7364130916
  S        12.5952310416        8.9646460256       20.9919683744
  C        12.6614844252        6.2949924591       21.5037043637
  H        18.0973800512       16.3943165723       -5.2958324566
  H        18.5291932065       17.8579485112       -6.1554342122
  H        17.7948967325       17.9801896515       -4.5551328601
  H         4.9702554335       12.0964976150       10.0463142763
  H         5.1811969377       13.8221253399       10.4930135872
  H         5.7518753693       13.0543510247        8.8823632183
  H        21.3291542357       16.7257869181       16.3021408808
  H        23.0185337586       16.2640827759       15.9892734586
  H        22.6431416554       17.9463775561       15.8509888646
  C        12.0274200122        8.2375600489       22.4395045656
  N        12.1220207283        6.9009088354       22.5534829502
  O        12.8088562284        5.1098238004       21.3924534204
  S        11.9204330708        9.0990600009       23.9203919664
  C        11.7889086083        6.1543899749       23.7344094780
  H        11.5570905453        5.1689142825       23.4593476826
  H        10.8989091459        6.5415935161       24.2554648207
  C        12.9521736048        5.8250180912       24.6368526868
  H        12.8031900776        4.7896699520       25.0138678864
  H        12.8432897515        6.4330711998       25.5525996244
  H        13.9563423817        5.9563862109       24.1584040360
