352
 i =    66700, time =    66700.000, E =        24.8419783149
  H        10.2683146682        4.5613180115       31.5708568529
  C        10.7650097334        5.4386486460       32.1054360376
  H         9.9155541119        5.9748989461       32.4500118890
  C        11.5140737394        6.2769954427       31.2072338706
  C        11.6403051382        4.8891191348       33.2144630681
  C        12.1810996738        5.5797703604       30.0887373456
  H        10.8808846902        7.1007248527       30.7515096473
  H        12.2719614261        6.8518603236       31.7300464526
  H        10.9151279890        4.2352662306       33.7367047319
  H        12.4938968058        4.2304203908       32.9418544056
  H        11.9154890540        5.6239829425       33.9011108719
  C        11.2231073508        4.8823640191       29.1236876355
  H        12.9996875994        4.9147197422       30.3539881914
  H        12.6791140132        6.3388886850       29.4739630127
  C        10.4036149995        5.8001256978       28.1547407879
  H        11.8352567469        4.2512624167       28.3900931351
  H        10.5109475072        4.1341676780       29.5916589811
  C         9.6840018990        5.0744060568       27.0654152796
  H        11.0885439154        6.5687810472       27.7557498814
  H         9.7107026537        6.2800469723       28.8311471247
  C         8.7278527971        6.0081073053       26.2242232416
  H        10.4119711575        4.5802045771       26.4831473732
  H         9.1456177897        4.3039041611       27.5288583115
  C         7.7035599134        5.2633377490       25.3424757728
  H         8.2145755150        6.8476890205       26.8013417673
  H         9.3554578416        6.5443166191       25.4701646930
  C         7.2730524884        3.8684807672       25.9798967700
  C         8.2182200630        4.5183512470       24.1248791183
  C         6.4996122777        6.1297682583       24.8566793607
  C         7.6470885239        2.8070896413       25.1771991355
  C         6.6405388151        3.4272593237       27.1944428224
  C         8.1137041048        3.1705405116       23.9331249101
  C         8.7094953700        5.1771477151       23.0174197193
  H         6.0300887733        5.6911662526       24.0192334456
  H         6.9997855925        7.0496148977       24.5633242082
  C         5.4683590489        6.3949875639       25.9548362317
  S         7.2805184847        1.2636909738       25.8928677092
  C         6.6661871800        2.0457242902       27.3315751921
  H         6.3342797092        4.1498645700       27.9788156939
  C         8.5601538468        2.5322552563       22.7872752425
  H         8.7170847932        6.2363897890       23.1134230382
  C         9.0542749934        4.5500330455       21.8627740741
  H         5.3824470934        5.5938116861       26.7272551160
  H         5.7098482458        7.2392046306       26.6430167967
  C         4.0735164466        6.5500189790       25.2444585439
  C         6.2733137680        1.3483832642       28.6337200270
  C         8.8902689944        3.2158072320       21.6566070673
  H         8.5262609398        1.4765659438       22.7829222043
  C         9.3763023486        4.9507440751       20.6124990605
  H         3.8647937849        5.6869175178       24.6449653499
  H         4.1635452916        7.3518059166       24.5560998379
  C         2.8990604173        6.7302363329       26.2130013319
  C         6.2457112215       -0.0864708768       28.8274438828
  C         5.8734902173        2.1923283018       29.7288552127
  C         9.3067210177        2.5109948363       20.4095077177
  C         9.5082399377        3.8838630556       19.7181666677
  S         9.5972322021        6.4655933599       19.9796356489
  H         2.0004637291        7.2157482624       25.6267294182
  H         3.1627548263        7.4590083650       27.0011266265
  C         2.3164929996        5.3770351551       26.6260816561
  N         6.6503734312       -1.0445241735       27.8507013098
  C         5.9459002239       -0.6291026541       30.0319074501
  C         5.6732750712        1.5390319408       30.9987070153
  H         5.9164846107        3.2706247323       29.8176028702
  C         8.1683055188        1.6129673289       19.8233619994
  C        10.5592809504        1.6362271077       20.6439372551
  C         9.8825245858        4.3739970567       18.4750685655
  C         9.9589301422        5.7466857911       18.4290158081
  H         1.6800463978        5.1185504733       25.8122585229
  H         3.0029909735        4.5568959073       26.7711490709
  C         1.5606245400        5.5139870229       27.9654579312
  S         6.5192216225       -2.5578329637       28.5487213622
  N         6.1040146060       -2.0263718257       30.0233872957
  C         5.6612557735        0.1018958193       31.1732366841
  H         5.4183308838        2.1541456001       31.8466669404
  H         8.0357822928        0.9734777387       20.7064800247
  H         8.4364061291        0.9658204490       19.0053507296
  C         6.8795391867        2.4068689686       19.5229437980
  H        10.8687890247        1.2202534846       19.6797455201
  H        10.2177215028        0.8521335105       21.3085998927
  C        11.7149403107        2.3522224649       21.3170587207
  H        10.1223462228        3.7796245417       17.6780575608
  C        10.1927355853        6.5142024799       17.1298827870
  H         0.7258899885        4.7644300404       28.1336530619
  H         1.0590268573        6.4007544786       28.0370159735
  C         2.5901580486        5.3268349324       29.0086945917
  C         5.4952639388       -0.5139278810       32.4610218931
  H         6.9569094878        3.1225484126       18.7596806655
  H         6.7021442956        3.0261168036       20.3873227312
  C         5.6269423051        1.5596686228       19.4241326022
  H        11.3877754802        2.7428028109       22.2789643576
  H        11.9430569470        3.2563657120       20.6762696040
  C        12.9084907882        1.4727261220       21.4860464316
  C        10.2740280266        7.9220423434       16.9968439512
  C        10.4363373874        5.7683629399       15.8403910296
  H         2.9128028510        4.2973560969       29.0918944095
  H         3.4435854456        5.8630332928       28.6375944336
  C         2.0624928833        5.8303743870       30.3996693855
  H         5.5386366158       -1.6034020238       32.4346667526
  C         5.0910003323       -0.1183729575       33.7205526530
  H         4.7113451598        2.1624174694       19.6660746571
  H         5.6753636797        0.7850125760       20.2147775310
  C         5.4787596256        0.8200569505       18.0625468918
  H        12.7811464550        0.8325816769       22.3738804031
  H        12.9718466739        0.8877359372       20.6074320384
  C        14.2520268282        2.1873660325       21.5372195469
  N        10.0443882768        8.7643265598       18.0807740896
  C        10.5567191071        8.5428380196       15.8657161000
  C        10.7576683594        6.4014054469       14.6704587072
  H        10.3821936568        4.7097275124       15.7077639061
  H         1.8216817548        4.9120044871       30.9692498708
  H         2.7922292118        6.2381601479       31.0485244820
  H         1.2239229876        6.5695573997       30.3126935070
  S         4.6848737505        1.5192397276       34.1507148534
  C         5.1775800409       -1.1501428031       34.7804531808
  H         6.0431884928        1.3355221389       17.3640066892
  H         5.8559266564       -0.2222757004       18.1888252568
  C         4.0360112040        0.9049713828       17.5865323029
  H        14.2835773247        3.0593680933       22.1714660084
  H        14.4966032717        2.4184627116       20.4985207015
  C        15.2629210815        1.2055107782       22.1359940493
  S        10.1727020971       10.2678220501       17.5599814112
  N        10.7080885022        9.9844368817       16.0611703560
  C        10.9223327030        7.9088327003       14.6656526651
  H        11.0626276582        5.8553758243       13.8088522555
  C         4.4396938637        0.7796017457       35.7617867033
  N         4.7848224130       -0.5198080802       35.9160815493
  O         5.6238016794       -2.2539198608       34.6142727581
  H         3.9941173622        0.5732087486       16.5935655641
  H         3.7637717701        1.8651387876       17.4974572213
  C         3.1047810559        0.0398541472       18.4621367940
  H        14.7974341735        0.8085767580       23.0011097400
  H        15.6918955359        0.5181237149       21.5190622744
  C        16.4602556576        1.9809770109       22.5803406286
  C        11.3753803259        8.6701049289       13.5505464776
  S         3.8762152146        1.6722966393       37.1970994182
  C         4.9231965782       -1.2681669697       37.2373947663
  H         3.3467976413        0.0016197414       19.4892639532
  H         2.1981715214        0.5073473690       18.4555713322
  C         2.9324771656       -1.3965939262       17.9671980307
  H        16.2338916911        2.3652412880       23.5839863636
  H        16.7460762593        2.7771036366       21.8975804912
  C        17.6569307794        1.0721361223       22.8016186309
  H        10.9400688582        9.6286073070       13.4715170974
  C        11.9996048971        8.3123812658       12.4109417403
  H         4.2994549787       -0.8229347698       38.0340449534
  H         4.3780616534       -2.2354679287       37.1193793194
  C         6.2970528553       -1.3750926344       37.7209412173
  H         2.5421465597       -2.0850346590       18.7017469372
  H         3.9627907218       -1.8385510720       17.8748490082
  C         2.0937403194       -1.5878786824       16.6661019289
  H        17.5677667965        0.3784644259       23.6020130115
  H        17.7491442242        0.4550092039       21.9251450623
  C        19.0200875817        1.7300708386       22.9099952544
  S        12.5941932427        6.8101021113       12.0391789219
  C        12.0096124620        9.2830891790       11.2763716025
  H         6.5689000535       -0.3510722634       38.0119031944
  H         6.5409297190       -2.1393485070       38.4903881663
  H         6.9459673351       -1.5418152125       36.8916416848
  H         1.0300521201       -1.7111178099       16.8795489305
  H         2.4482135538       -2.5888709616       16.3181358553
  H         2.2891750006       -0.9942036426       15.6854345107
  H        19.1962620377        1.8775761162       23.9900486118
  H        18.8102027547        2.6368664946       22.2832596928
  H        19.7815759994        1.1079909220       22.5031209887
  C        12.9502558955        7.4091035493       10.3812092500
  N        12.5945202427        8.6926836733       10.2248742221
  O        11.4481473315       10.3510681069       11.3704603015
  S        13.4972799706        6.4058886282        9.0090424431
  C        12.8367653497        9.4273295609        8.9830288389
  H        13.1289922478       10.4075576487        9.2593496651
  H        13.7831803273        9.0140366600        8.4870693857
  C        11.6133514655        9.4138350836        8.0588819839
  H        10.7364880696        9.4264613786        8.6838166301
  H        11.5812259813       10.1974176619        7.2603801765
  H        11.4962245861        8.3326976113        7.6405880597
  H        22.5141825868        8.9216723311        3.3472930162
  C        22.7047342182        9.9993518030        3.1862261177
  H        23.5802523040        9.9231760360        2.5520075920
  C        23.1910100458       10.6072433317        4.5161898825
  C        21.6522250151       10.7024330622        2.3815203416
  C        22.0979615352       10.6945579093        5.6109223677
  H        24.0260874425       10.0018743205        4.8699037860
  H        23.5371245701       11.6243202312        4.4625711724
  H        22.0668732093       11.0314758441        1.4587713095
  H        21.3545441850       11.5665213259        2.9513736583
  H        20.7529456133       10.1566097277        2.1462260123
  C        21.5942970353        9.2974238563        6.0864852929
  H        22.4766824744       11.0473644711        6.5456169524
  H        21.3751969969       11.4219438911        5.3185551447
  C        20.9254490226        9.4040504875        7.5180711932
  H        22.5015109760        8.7830529546        6.2170257845
  H        20.9809441488        8.8821868450        5.2477629406
  C        19.7127542573       10.4522134627        7.5860696429
  H        21.6274711628        9.6392824497        8.3458831436
  H        20.4800288764        8.4313771282        7.7360055593
  C        18.3521891597        9.7710191335        7.2466282347
  H        19.6174885519       10.8869125955        8.6126898138
  H        19.9426154482       11.2825989576        6.9738405918
  C        17.0995035988       10.6083847643        6.9541087205
  H        18.1270724484        9.1456142928        8.1442487843
  H        18.5934497456        9.1609551815        6.3549339231
  C        17.3138589963       11.9453500912        6.3123672364
  C        16.6870532763       11.3396454673        8.2307147329
  C        15.9054408617        9.8006031725        6.3386341168
  C        16.9985251528       13.0845816064        7.0485643068
  C        17.8249061718       12.3000412624        5.0671205764
  C        16.5398816038       12.6995598937        8.3031361435
  C        16.2762792204       10.6211875911        9.3617526505
  H        16.3117270459        9.4398655259        5.3600455383
  H        15.5633741905        9.0457425361        7.0459004243
  C        14.7068243479       10.6794649111        5.8836556169
  S        17.2456406095       14.5491049651        6.2544735981
  C        17.8615007171       13.6671167035        4.8804280857
  H        18.0090025587       11.4680856214        4.4117074184
  C        16.1263249144       13.3535590754        9.4829441104
  H        16.2672673101        9.5313457981        9.2740068106
  C        15.9318769765       11.2730195949       10.5328875376
  H        14.9810220859       11.6718855429        5.5217957093
  H        14.1727840947       10.9430754708        6.8441564826
  C        13.5533181701       10.1207143696        5.1002498629
  C        18.3847710628       14.3351084453        3.6588795011
  C        15.8140646229       12.6208161789       10.6533825177
  H        16.1306263684       14.4219558095        9.4644263469
  C        15.5099734160       10.7907115984       11.7445220864
  H        12.8888465026       10.9861046011        5.1136456568
  H        13.0870014833        9.2528044999        5.5379814920
  C        13.9433637520        9.8977400443        3.6197513117
  C        18.4385189188       15.7375018506        3.4061400583
  C        18.8979966105       13.5269093377        2.5449598605
  C        15.3846343596       13.2800477584       11.9566915924
  C        15.2426056394       11.8538286659       12.5895452284
  S        15.2061866954        9.2831730880       12.5527007450
  H        14.5791543190        9.0654912973        3.4623908343
  H        14.4728632699       10.7790674818        3.2321254583
  C        12.7213618731        9.5182815186        2.6820269584
  N        18.1357134735       16.6682168313        4.3963245893
  C        18.7151117604       16.2890248293        2.1824517841
  C        19.1156673509       14.1135085901        1.3064547915
  H        18.8775225617       12.5060641020        2.6376540285
  C        14.1520069690       14.1311279003       11.6804332759
  C        16.4207412650       14.1204588808       12.7353589935
  C        14.8296666452       11.4666529526       13.9415069313
  C        14.7939656531       10.1299265677       14.0725555314
  H        11.9579385816        9.0343658099        3.2798221530
  H        12.3017471933       10.4955968981        2.4155503363
  C        13.2469766178        8.7580216623        1.5279474928
  S        18.2174382995       18.1396923973        3.7449972633
  N        18.6755983228       17.7274766950        2.2207860648
  C        19.0314442316       15.5757491347        1.0109244289
  H        19.3522599197       13.4777346062        0.4401562546
  H        14.4089196896       14.9464604258       10.9231136193
  H        13.8619485053       14.6251164073       12.5504321087
  C        12.9465915030       13.3525656120       11.2177280471
  H        16.9512619878       14.8381217269       12.0417174233
  H        15.8727425208       14.8011871695       13.4543670764
  C        17.5524447280       13.3826992943       13.5364848964
  H        14.6154906065       12.1946126573       14.6617117923
  C        14.4988428376        9.3679904060       15.3334365769
  H        12.7354702536        7.8085848833        1.3841385639
  H        14.3506851164        8.6337640266        1.5417471379
  C        13.2382203181        9.5445825535        0.2934387889
  C        19.2548888146       16.2567915177       -0.2087058570
  H        13.2660021052       12.9339736095       10.3222084224
  H        12.5625261678       12.5203508907       11.7421567399
  C        11.6778472514       14.1978911639       10.8596748412
  H        17.9409469628       12.7238850823       12.8163461628
  H        17.1880417120       12.7929843305       14.3436213650
  C        18.6526646821       14.2716065530       13.9995357468
  C        14.4936172858        7.9625085491       15.4610017224
  C        14.1824293429       10.1579927378       16.5962914504
  H        13.7382612971       10.4720961909        0.4960810287
  H        13.8554997581        9.1515200460       -0.5082219149
  C        11.8241907040        9.9235460698       -0.0839547842
  H        19.0536190953       17.3336860523       -0.1250583160
  C        19.4780642127       15.8248144620       -1.4913975519
  H        11.7854072665       15.1281882119       10.3268925223
  H        11.2059852666       14.5573725233       11.8154500767
  C        10.5946341488       13.3995526214       10.1928707552
  H        18.8593623334       15.0610735002       13.3472565128
  H        18.3740086232       14.6522827321       14.9618422324
  C        19.9109487555       13.4949834210       14.0969400257
  N        14.7484245108        7.0066322831       14.4774281010
  C        14.1527228641        7.2759662072       16.5881528895
  C        13.9582516423        9.4506934646       17.7800060563
  H        14.0557396334       11.1895708119       16.6150364175
  H        11.5318615073       10.8743657137        0.3535349279
  H        11.0601509809        9.2269486371        0.2536758953
  H        11.7612710911       10.0941608476       -1.1458651293
  S        19.6947697339       14.2517385425       -2.0361113629
  C        19.4052265529       16.8676979644       -2.5167674978
  H        10.9872084909       12.9690374110        9.3140342547
  H        10.3510446699       12.5826151017       10.8782995550
  C         9.2471494324       14.0876987277        9.8733531172
  H        20.0772946062       12.9041394086       13.1943599985
  H        19.8156509950       12.6542247488       14.8750013038
  C        21.0625589294       14.4635931655       14.5463182387
  S        14.6078572726        5.4799471106       14.9867137024
  N        14.2840137704        5.8439997727       16.4964615152
  C        13.8216582266        7.9486024824       17.7680708592
  H        13.9110555982       10.0342139204       18.6671777554
  C        19.5826083950       14.9329239001       -3.7412191408
  N        19.5053651289       16.3082613833       -3.7449363415
  O        19.1691147568       18.1180210979       -2.2512020293
  H         8.7107616941       14.4450187078       10.7874271022
  H         9.5159524893       14.9515215141        9.2925551287
  C         8.2871171625       13.2099128263        9.0227923644
  H        20.6984032115       15.0421110795       15.4216515582
  H        21.8296135138       13.8550847939       15.0411012628
  C        21.6648324561       15.5273787380       13.5549875092
  C        13.5066467099        7.1626033672       18.9700030966
  S        20.1267507867       14.1916688592       -5.1724556090
  C        19.3696426272       17.0785693985       -4.9671774124
  H         8.8501745779       12.8880971777        8.1337409737
  H         7.9338324372       12.4227473525        9.5948001668
  C         7.1477329348       14.0028867638        8.4859325436
  H        20.9207140666       16.2854632678       13.3032789445
  H        21.9552693787       15.1421328206       12.6514308520
  C        22.8562831001       16.2632560294       14.1917091064
  H        13.9026191925        6.1714668100       18.8129374518
  C        12.9946796921        7.4534425131       20.2381985213
  H        19.9882334263       16.7939968278       -5.8498653450
  H        19.6648875346       18.0750080378       -4.7842415522
  C        17.8814238218       16.9989154063       -5.3845985105
  H         6.6116850028       13.5163815360        7.7200042811
  H         7.5398742983       14.8924933653        8.0347584374
  C         6.0912012194       14.2100924307        9.5215887798
  H        23.2883606070       15.4334330853       14.7797138332
  H        23.3859862915       16.5851196869       13.3014627455
  C        22.3808470800       17.4800104816       15.0593084264
  S        12.3170576196        8.8560280551       20.7036610484
  C        12.8527377048        6.2908559332       21.1380775443
  H        17.1114114526       16.8265441242       -4.5554123383
  H        17.7846052742       16.0327800630       -5.9592812071
  H        17.5711823018       17.8377328490       -5.9621864893
  H         5.5229666224       13.3781350752       10.0443805504
  H         6.3628845991       14.8792580756       10.4492780264
  H         5.2998158456       14.6406636717        8.9775955997
  H        21.5362846589       17.2350114471       15.6858563388
  H        23.2157438387       17.8252038033       15.6102103916
  H        21.9471288528       18.3728393144       14.5054221346
  C        11.8824785715        8.0503106180       22.2122728191
  N        12.1552022884        6.7303728149       22.2001077695
  O        13.3058557012        5.1805328648       20.9079334460
  S        11.1446543067        8.6936038468       23.6888617854
  C        11.8670614531        5.7203408620       23.2371934122
  H        11.6090469220        4.8454811304       22.6748825512
  H        11.0158989914        5.9989806051       23.8750804179
  C        13.0440473713        5.4784307366       24.1884557265
  H        13.6728579234        4.7370158830       23.7445465500
  H        12.8661352756        5.1326130898       25.2315548314
  H        13.6789603110        6.3766914596       24.3027452966
