352
 i =    83800, time =    83800.000, E =        24.8176708525
  H        10.2202446714        6.8450143163       32.0134097656
  C        11.2543252566        6.5694716203       32.2326641074
  H        11.5725121316        7.4615478338       32.7669911561
  C        12.0226255973        6.3818870484       30.8959636750
  C        11.3558580140        5.4343091135       33.2312252548
  C        11.1997471668        5.6264667785       29.8024963491
  H        12.3376912721        7.3468673419       30.4975947893
  H        12.9449069835        5.8504912942       31.1972373113
  H        12.3708903623        5.3228030006       33.5632145093
  H        10.9335183001        5.7622707740       34.2200350749
  H        10.7931584601        4.5856340654       32.8805327278
  C        10.5524595158        6.5531644912       28.6852138727
  H        10.3856087929        5.0520097577       30.2040023626
  H        11.9229935466        4.8288617774       29.5128238516
  C        10.7371538233        6.0856649404       27.2838971978
  H         9.4733030233        6.6548958436       28.7813667738
  H        10.9008099259        7.5902579397       28.7527961244
  C         9.4509286886        5.2294857106       26.9154349746
  H        11.5881572647        5.4519635281       27.2294828698
  H        10.8778504711        7.0061559335       26.6444150085
  C         8.4384355411        6.1168746548       26.2450866539
  H         9.7398355327        4.4351688707       26.2855847416
  H         9.1415984078        4.8356419252       27.8771671236
  C         7.4360667293        5.1337184814       25.4368042855
  H         7.7770180395        6.6493836385       26.9538909416
  H         8.9465542904        6.8937759457       25.6029120087
  C         7.2239689650        3.7662392122       26.1512655146
  C         7.9910407969        4.4155649742       24.2126287524
  C         6.1350551598        5.7572022799       24.9587765841
  C         7.5265595907        2.7014860372       25.2860971180
  C         6.8022134113        3.3877425708       27.4559833535
  C         7.9793796369        3.0976694102       24.0293396549
  C         8.3124308821        5.1431802953       23.0762253786
  H         5.7730776724        5.3176367128       24.0265474869
  H         6.3159375930        6.8557468374       24.7696017057
  C         4.9901674764        5.6320510413       26.0750718596
  S         7.1734219289        1.1344523272       26.0803207223
  C         6.7912263974        2.0301563321       27.5820955197
  H         6.6274038174        4.1183227957       28.2034012320
  C         8.2843757704        2.5404378448       22.8231478397
  H         8.3398620874        6.2121253774       23.1318909191
  C         8.7038771178        4.6053755438       21.9224306629
  H         4.8841882282        4.6211829617       26.1278397278
  H         5.4148911563        5.9675695381       27.0511593725
  C         3.6601127921        6.2309124970       25.6676904742
  C         6.2122115826        1.3585206943       28.7855114234
  C         8.7088157488        3.2696658165       21.7231249227
  H         8.0566146957        1.5085832339       22.6030306509
  C         9.0932642417        5.0249982361       20.6186007683
  H         3.3730021258        5.8438952398       24.6836849802
  H         3.9086089316        7.2008258199       25.2973789668
  C         2.5336743621        6.2656653764       26.7321400063
  C         6.3331326907       -0.0663506934       29.0444517326
  C         5.5966490858        2.1934173060       29.8671737070
  C         9.1189581833        2.5115440675       20.4596698847
  C         9.3348853765        3.8994699209       19.8313396860
  S         9.3384484351        6.4570835091       19.7703350776
  H         1.7889150412        6.7758164869       26.1502926025
  H         2.7224880305        6.9588071526       27.5065191915
  C         2.3391605534        4.8755551830       27.3174223580
  N         6.9417649848       -1.0060163553       28.1070774595
  C         5.9959982023       -0.6605579582       30.2602795811
  C         5.2790659074        1.5273694205       31.0440173549
  H         5.5195665860        3.2974746480       29.8844607064
  C         7.9066590307        1.7926874504       19.7805352973
  C        10.4297805981        1.7784523725       20.5172085713
  C         9.7935896005        4.1833842048       18.5614705816
  C         9.8219374388        5.5766697019       18.3325447441
  H         2.1357624670        4.2288814436       26.4393498082
  H         3.2292924814        4.5812555427       27.7974963703
  C         1.2172318423        4.7358870623       28.3678417573
  S         6.8073018274       -2.4920525080       28.8093585034
  N         6.2588194491       -2.0385677409       30.2545186940
  C         5.4085112320        0.0487865966       31.3378513908
  H         4.8701834446        2.0952542337       31.7953672458
  H         7.7016440988        0.9930699424       20.5488966227
  H         8.1060257249        1.1563486287       18.8516889660
  C         6.7249153743        2.6118223244       19.4942413111
  H        10.6617466738        1.3192229272       19.5356972365
  H        10.3525347122        0.9800253384       21.2228852598
  C        11.6250712991        2.6550693093       21.0720674896
  H        10.0094556008        3.3613138060       17.8665493282
  C        10.0730890940        6.2708093701       17.0313212442
  H         1.1276582490        3.6210173632       28.5792883529
  H         0.2619224679        5.0976205630       27.9743180689
  C         1.4276819487        5.4922870965       29.7233670417
  C         5.1646801945       -0.5988925130       32.6135813644
  H         6.8058273182        3.1709803536       18.5703395123
  H         6.6175588786        3.3130576848       20.3067936429
  C         5.4425589124        1.8518366659       19.3805848298
  H        11.2876702454        3.1857049395       21.9026506790
  H        11.9047130225        3.4277791237       20.3087000620
  C        12.8699725986        1.7011664940       21.2351577825
  C        10.2795621745        7.6820196766       16.8504092002
  C        10.2631672105        5.5277588845       15.7594158005
  H         1.2987646523        6.4906655645       29.5867173831
  H         0.6763021368        5.1428677607       30.3908178237
  C         2.8554961636        5.3236012203       30.2492601204
  H         5.4186259470       -1.6593689153       32.5775710025
  C         4.9763302331       -0.1646177239       33.9158751408
  H         4.6891788945        2.5546629645       19.6218962108
  H         5.3249050898        1.1097024759       20.1025424756
  C         5.1062820229        1.3958887980       17.9250600637
  H        12.7079535654        1.0310654311       22.1082396465
  H        12.9320398149        1.0710790481       20.3438987985
  C        14.1075792265        2.5601989655       21.3376485179
  N        10.0277292617        8.5940856991       17.8541247836
  C        10.5736855714        8.2940873307       15.6863236338
  C        10.4804354307        6.1122130417       14.5463869881
  H        10.0645263615        4.4553710452       15.8463403668
  H         3.6713193132        5.5643972671       29.5229747238
  H         3.0939784486        5.9863267903       31.0904953856
  H         2.8881278799        4.2768563819       30.6922730811
  S         4.7019797693        1.4338061834       34.3949414486
  C         5.0578393837       -1.2174833271       34.9518399272
  H         5.2608992730        2.1222409430       17.0625292534
  H         5.8943688435        0.6966377373       17.6656576402
  C         3.6573746895        0.8171954071       17.9275373306
  H        13.8549195589        3.1228283569       22.1760975129
  H        14.2649221960        3.2050441035       20.4922493895
  C        15.3483089250        1.7223538144       21.6917238947
  S        10.2426432316       10.1222939229       17.3002897962
  N        10.4687372020        9.7286569514       15.7960868571
  C        10.8791423458        7.5498112789       14.4824073346
  H        10.5020084601        5.5187308586       13.6408909172
  C         4.5451783876        0.6795978663       36.0551960320
  N         4.7474661310       -0.6487860363       36.1636088541
  O         5.3566588414       -2.4149033668       34.6691011460
  H         3.2343195546        0.9205063826       16.9418764815
  H         3.0478302966        1.4155280199       18.5846605199
  C         3.6995966845       -0.6495247764       18.3475615033
  H        15.0212539511        0.7246653350       21.9845422226
  H        15.8879000943        1.4587548077       20.7701023874
  C        16.3507905469        2.4099650149       22.6909024926
  C        11.1269743618        8.2295731410       13.3230442082
  S         4.3098647219        1.5305119007       37.5785682088
  C         4.8983448202       -1.3098695760       37.4540506040
  H         4.4584041382       -1.1469915920       17.8433698690
  H         3.9421486840       -0.6736622302       19.4203173782
  C         2.3346776983       -1.3427441711       18.2152397930
  H        16.0685693191        2.4052124970       23.7167133371
  H        16.3999008807        3.4735932322       22.4711368592
  C        17.6695106490        1.6899015471       22.6864612922
  H        11.0654375956        9.2653656200       13.4446298509
  C        11.7954082580        7.9919035324       12.1048489883
  H         4.3326904740       -0.7842177411       38.1735897217
  H         4.3195916260       -2.2457596991       37.3729544379
  C         6.3598014745       -1.5515513779       37.8215656650
  H         1.4513899660       -0.7368389847       18.3474310132
  H         2.4385214232       -1.9984113303       19.1231577513
  C         2.2974771847       -2.1214673977       16.9312623191
  H        18.2120006070        1.9550603494       23.6450627224
  H        17.4449403696        0.6536076324       22.7055255378
  C        18.5445208721        2.1175629767       21.5044001904
  S        12.3515705067        6.5286809781       11.6447571651
  C        11.8983917418        9.0976414148       11.1342619318
  H         6.8969051873       -0.6899955800       38.3432169222
  H         6.4929416483       -2.4793909540       38.3624381755
  H         7.0156780985       -1.6816374530       36.9336641970
  H         2.4345019396       -1.4115829449       16.1217698656
  H         1.4690549895       -2.7866077420       16.8965497856
  H         3.1964222166       -2.7574088318       16.9038153610
  H        17.9204995644        2.2364686409       20.5999410543
  H        19.4185647247        1.4392680354       21.2745948206
  H        19.0478847727        3.0831580423       21.7104111669
  C        12.6047253402        7.2860564293       10.0622363883
  N        12.4784137682        8.5896626981       10.0331993526
  O        11.5493660999       10.2674254920       11.3170273107
  S        13.3134854036        6.4691131513        8.6964299247
  C        12.4949494295        9.4379285112        8.8502449623
  H        12.9011784068       10.3765931874        9.1966053777
  H        13.2328507462        9.0132361483        8.1026655637
  C        11.1487628323        9.5742891439        8.1781488360
  H        10.6116992534       10.4231846486        8.3841752321
  H        11.2273654178        9.5637417774        7.1246527409
  H        10.4677111847        8.7874370172        8.3630258752
  H        21.6273459641       11.7047863129        2.8710168260
  C        21.7202710692       10.6180742074        2.7931451594
  H        20.7888819889       10.1125486106        3.1799236832
  C        22.9283310528       10.2111069965        3.5971048003
  C        21.9821728700       10.2175918823        1.3565208716
  C        22.6007033784       10.4223100135        5.1071613440
  H        23.1828613435        9.1721673486        3.3786255478
  H        23.7476236271       10.8468287733        3.3047495979
  H        22.7843437999       10.7700488635        0.8700714762
  H        21.0291250428       10.4729284595        0.8619423145
  H        22.2212389479        9.1758304452        1.1895821718
  C        21.8098695420        9.2130042675        5.6841529601
  H        23.5110246282       10.4733887113        5.7292019577
  H        22.0769846981       11.3402364128        5.3344455359
  C        20.8103713542        9.5830368418        6.7886161130
  H        22.4252046485        8.3561480637        5.9797802569
  H        21.1649459805        8.8437693168        4.8517884085
  C        19.4428594514        9.3225177865        6.2759841805
  H        20.9039530906       10.6458336616        7.1078365580
  H        20.8322779214        8.9956324498        7.7335703545
  C        18.4665341795        9.6827131155        7.4000165219
  H        19.1246553742        9.8366501346        5.3618104437
  H        19.4086100095        8.2400241288        6.1616040684
  C        17.2835995927       10.5106899158        6.9420366468
  H        19.1460443243       10.3399339136        7.9890984493
  H        18.1928978870        8.9286441688        8.1221483625
  C        17.6560075961       11.9025848048        6.3388226436
  C        16.6822100815       11.2155773252        8.1125905563
  C        16.2125616289        9.7536201625        6.1727715339
  C        17.2801322741       13.0172239812        7.0516579638
  C        18.2668527774       12.2081777210        5.1302790418
  C        16.6946780073       12.5753673767        8.2309521147
  C        16.0184807236       10.5622996129        9.1243496720
  H        16.6113297715        9.5243099344        5.2059342286
  H        15.9303923283        8.8143546988        6.7672550602
  C        14.9387058394       10.6528651422        5.9071321604
  S        17.6118510566       14.4919852722        6.2727845189
  C        18.3204062876       13.5768850470        4.9443490555
  H        18.4799101500       11.4922691697        4.3150425832
  C        16.1513023538       13.1658750946        9.3424045895
  H        16.0214140538        9.4400640614        8.9715380076
  C        15.6139156089       11.1467561121       10.2961246123
  H        15.2496208885       11.6039125406        5.4246477920
  H        14.4216638777       10.9694740947        6.8010056338
  C        13.7508206595       10.0446520037        5.2255200617
  C        18.6971711277       14.3006320191        3.6943701878
  C        15.5569100977       12.4492563198       10.4354082262
  H        16.2950115559       14.2437869539        9.3968818692
  C        15.1143306571       10.7563183356       11.5500497933
  H        12.8117222925       10.6339752679        5.2924532972
  H        13.4238123539        9.1185067791        5.7168148171
  C        14.0801178590        9.6914910174        3.8072615730
  C        18.7871240237       15.7037402884        3.5026345709
  C        18.8505556554       13.4601036620        2.5024715964
  C        15.1734541127       13.2003174636       11.6745768023
  C        14.8818750124       11.8237673268       12.3414426514
  S        14.8838164214        9.2463470497       12.3775295328
  H        14.4038391057        8.6151377027        3.7386795637
  H        14.9315881029       10.2649720112        3.3702391314
  C        12.8512407520        9.6045599459        2.9485631491
  N        18.4267239406       16.7139624727        4.4389681518
  C        19.0840004182       16.3048709210        2.2876371355
  C        19.2283868056       14.0839071567        1.2619210067
  H        18.8783161367       12.4452377424        2.6168686713
  C        13.9440073552       14.0398004918       11.5655617484
  C        16.2660848573       13.9604075336       12.2515609970
  C        14.4378391665       11.4458833844       13.6114148031
  C        14.3532267584       10.1112175360       13.8199319995
  H        12.1004515681        8.9121350859        3.4290633794
  H        12.4108982057       10.5693061281        2.9849239147
  C        13.1820749910        9.2563856566        1.5230512652
  S        18.4554314405       18.1759883957        3.8059884244
  N        19.0184081397       17.6950562489        2.3207751230
  C        19.4016633308       15.5693027669        1.1115044036
  H        19.2505317543       13.2986726474        0.5148371840
  H        14.2082911784       14.8927213563       10.9895623949
  H        13.6981868818       14.4317412229       12.5986393857
  C        12.6831052436       13.4275389463       11.0622859931
  H        16.3906351970       14.8220353211       11.6367547572
  H        15.8963107517       14.3786513979       13.2036302535
  C        17.6803503019       13.2369632746       12.3981242647
  H        14.1577800385       12.2523424334       14.3632957082
  C        14.1389013219        9.4146255894       15.0916898713
  H        12.6403529287        8.3608255748        1.2499954767
  H        14.1943368709        8.9631859006        1.5209583806
  C        12.9022856047       10.4338210956        0.5486004592
  C        19.5478376729       16.2052243711       -0.1245711688
  H        12.8123010202       13.0175729857       10.0539823768
  H        12.2649276181       12.7378158641       11.7379150952
  C        11.5050629072       14.4077479297       11.0161495719
  H        17.9838927097       12.8783750869       11.4082389662
  H        17.5855118285       12.3178995486       13.0590536889
  C        18.7598357831       14.2526132045       12.9736507806
  C        14.1329160648        8.0289851957       15.4202639813
  C        13.8408464247       10.3110918129       16.2076738350
  H        11.8132024464       10.6388805099        0.4717242466
  H        13.1663154348       11.4109647620        0.9882250803
  C        13.5535053703       10.2334098189       -0.8507659683
  H        19.4001025951       17.2390968844       -0.1048733837
  C        19.7936005579       15.8093060897       -1.3873381197
  H        11.7883617226       15.1883916666       10.2338209956
  H        11.2923515911       14.8729311609       11.9590990782
  C        10.3389968309       13.5798980565       10.4811436513
  H        18.9615937991       14.8735727322       12.1556777448
  H        18.3585819960       14.8290027661       13.7895979710
  C        20.0029232212       13.5303501105       13.5603867030
  N        14.2357126629        7.0360958573       14.4825453345
  C        13.8358243847        7.5134137382       16.6887533689
  C        13.7339418635        9.8147637167       17.4892939233
  H        13.8267871093       11.3869953566       16.0173812852
  H        13.7145570629       11.1392423799       -1.4460646756
  H        12.9036140526        9.6015467530       -1.4674316776
  H        14.5408975847        9.8097020360       -0.7307595641
  S        20.2537864250       14.2491948745       -1.9436895458
  C        19.7954871082       16.9063797418       -2.3939071480
  H        10.7632813168       12.7970319635        9.8895932001
  H         9.8415216827       13.2105282191       11.3710249460
  C         9.3151107723       14.4312764404        9.7092391024
  H        19.9941116142       12.5595464855       13.0455931338
  H        19.8896600718       13.3205673034       14.6417728833
  C        21.3129090512       14.3278123550       13.2482991124
  S        14.4251845482        5.6039795450       15.2450686271
  N        14.0108412298        6.1485542544       16.7707035600
  C        13.5551824168        8.3778505151       17.7872928273
  H        13.7074186750       10.5863889293       18.3320723917
  C        20.4880421597       15.0455825897       -3.5628395306
  N        20.2301685090       16.4198736952       -3.6126879286
  O        19.5385178852       18.0865410457       -2.2325557293
  H         8.7890318015       15.1026979557       10.4172558404
  H         9.7977610231       15.1588248885        9.0443812828
  C         8.4096172701       13.4483769012        8.8857394882
  H        22.0947275226       13.6171379171       13.3094480178
  H        21.3004067666       14.7757767443       12.2539534388
  C        21.4962601150       15.5266148596       14.1646932303
  C        13.3281411384        7.7759800270       19.0693137481
  S        21.0118225149       14.2470333609       -5.0763296529
  C        20.2204800644       17.2475642320       -4.8296652402
  H         8.9699165734       13.1300756510        8.0634418516
  H         8.2824620331       12.5592419313        9.4688720819
  C         7.0798520541       14.0662041457        8.4022735268
  H        21.6345560309       15.1730894569       15.2071907929
  H        20.5615565465       16.0437945222       14.1625599511
  C        22.5310358832       16.5810035638       13.7694488052
  H        13.7148085592        6.7914012325       19.0147801353
  C        12.6189801525        8.0468640633       20.1852055138
  H        20.7834121440       16.7856436381       -5.6801238638
  H        20.6004486303       18.2284870586       -4.7461172842
  C        18.7772554930       17.3966157627       -5.2884482416
  H         6.8383239008       13.4903224951        7.5081738624
  H         7.3559017567       15.0378717554        8.0966406648
  C         6.0437033911       13.9891152112        9.5010999937
  H        23.4764801735       16.1079043452       13.7210615966
  H        22.4382575441       16.9967454164       12.7787319456
  C        22.8244350555       17.7327989894       14.7416707214
  S        12.0221715911        9.6155806071       20.6177139010
  C        12.4970735181        7.0066132677       21.2416747515
  H        18.3071357423       16.3775354072       -5.3766891047
  H        18.7407735804       17.9768111656       -6.2144706029
  H        18.1232660738       17.9248353407       -4.5960230680
  H         6.6545380563       14.0498578560       10.3865056988
  H         5.2317470226       14.7593914627        9.3427728611
  H         5.6569860586       12.9509181416        9.4712347995
  H        23.4592936073       17.3821385274       15.5217409014
  H        23.4612077788       18.5042230563       14.2428205790
  H        21.9612282663       18.1135575901       15.2727614666
  C        11.6069856052        8.7340183813       22.1177898780
  N        11.7728661164        7.4247772126       22.2123177792
  O        13.0467704991        5.9000996392       21.1031193830
  S        10.8074829192        9.4475227230       23.4844954154
  C        11.6434624657        6.5924033005       23.4040362037
  H        11.3008292860        5.5466604249       23.2761478845
  H        10.9420935812        6.9502244373       24.1201018320
  C        13.0181422243        6.5603909400       24.0405461163
  H        12.9886363013        6.5533942079       25.0729233974
  H        13.6084204764        7.5106421181       23.8169108645
  H        13.7403050487        5.6459876770       23.9215737524
