352
 i =    31600, time =    31600.000, E =        25.0625228977
  H        12.1771558118        5.1410359921       32.4912893589
  C        11.2938157554        5.7316039702       32.4748199154
  H        10.4899860489        5.0251809552       32.2254494697
  C        11.3771620080        6.9434563354       31.5148682172
  C        11.1607951059        6.2051960575       33.8939639139
  C        11.7371593252        6.5580322085       29.9971625269
  H        10.3643313464        7.3458238102       31.5581447908
  H        12.1156382169        7.6305591867       31.8629553496
  H        10.0651396195        6.2918288564       34.0676015555
  H        11.5018566578        5.3844887617       34.6192405813
  H        11.5946526823        7.2327637245       34.1036037546
  C        10.5487585811        5.9607607496       29.1548783783
  H        12.4978430270        5.8282007362       30.0851940905
  H        12.1741736493        7.3924478027       29.4090831902
  C        10.7632557858        5.9685439448       27.7232237948
  H        10.4152583206        4.9794180193       29.5318165079
  H         9.5859005157        6.5142803450       29.2738427875
  C         9.7577566131        5.1108773270       26.9501828144
  H        11.6658256412        5.5415999258       27.4003020412
  H        10.9299965921        6.9734369694       27.3798983548
  C         8.6196399187        5.9677109049       26.3648686658
  H        10.1733911599        4.5537316786       26.1715511563
  H         9.3784641440        4.3137669662       27.6310136409
  C         7.5477262995        5.1921748166       25.6322827722
  H         8.2366995635        6.5501227852       27.1760923051
  H         9.2253511155        6.6295055429       25.7842204467
  C         7.1530157607        3.8682400740       26.2892805177
  C         7.9480766547        4.4373549678       24.4205828615
  C         6.3016048037        6.0596843823       25.3921988050
  C         7.3485569231        2.7800428268       25.4798827942
  C         6.6493584856        3.5723830715       27.5820420143
  C         7.7474155647        3.1282339148       24.2436293835
  C         8.4888034546        5.1193253811       23.3652969165
  H         6.5625561689        6.9176346355       24.8835393868
  H         5.9997134324        6.3273398297       26.3796793815
  C         5.1188335492        5.3276638967       24.6961363224
  S         6.8447794704        1.3080768189       26.2025141247
  C         6.3743874488        2.2064905971       27.6318435303
  H         6.5824072100        4.4643678800       28.2630827842
  C         8.0899739282        2.4744853432       23.0697197546
  H         8.5793970944        6.1625761959       23.4221500234
  C         8.8005896373        4.5601083686       22.1621410656
  H         5.2277533479        5.2647527869       23.6249856273
  H         4.9183511707        4.3349425001       25.1690055457
  C         3.7988129267        6.1647437654       24.7063569160
  C         5.9218763946        1.5160139935       28.8735501149
  C         8.6952773729        3.2011052716       21.9932166023
  H         8.0244916312        1.4692414807       22.9491703489
  C         9.1198780746        4.9327110315       20.8603678377
  H         3.0714086505        5.6182612955       24.1508746763
  H         3.8820696926        7.1768627239       24.3354557470
  C         3.2023410954        6.4140024354       26.0269543197
  C         5.9748556805        0.1447262206       29.1316747178
  C         5.5020713889        2.3952396024       30.0063186317
  C         9.0543075407        2.5616082224       20.7210135346
  C         9.4205039682        3.8568434178       20.0450623832
  S         9.4793727120        6.4829447116       20.1384913596
  H         2.3333041731        6.9956989408       25.9174111684
  H         3.7791730352        7.1310522753       26.5967368264
  C         2.9755233499        5.1280975666       26.8506221148
  N         6.3311639430       -0.8711554956       28.2060337509
  C         5.7173168655       -0.4359623173       30.4183088962
  C         5.1248828605        1.8490841253       31.2420021144
  H         5.3919805301        3.4247145704       29.8415607455
  C         7.9044369114        1.8278496775       20.0573591385
  C        10.2953493847        1.6657352420       20.7747655632
  C         9.8385784369        4.2508831709       18.7613294432
  C         9.9813412223        5.6278931480       18.6969320721
  H         2.5877946248        4.3958256162       26.1230198294
  H         3.8487301288        4.5746687495       27.2322442276
  C         1.9535481347        5.2676487183       28.0292515711
  S         6.3270769483       -2.2965378314       28.9873896094
  N         5.9758910945       -1.7713716100       30.4761172849
  C         5.2623772146        0.3956933905       31.5125377430
  H         4.8874371566        2.5058501138       32.0512781263
  H         7.6020240805        0.9781394160       20.6764383363
  H         8.2792533139        1.2254336898       19.2256089915
  C         6.7583697294        2.7632506607       19.7339395127
  H        10.6185082054        1.3364283159       19.8483171584
  H        10.0031925867        0.8667237020       21.4749684133
  C        11.4630055145        2.3717647465       21.4871398515
  H        10.1200738099        3.5400161203       17.9586127547
  C        10.2135548460        6.4059939119       17.4331193987
  H         1.3252500633        4.3805153277       28.1419011938
  H         1.2934456376        6.1596492730       27.7278069016
  C         2.7412888644        5.5758374560       29.1957426473
  C         5.1143033546       -0.2249783784       32.7893719029
  H         7.1290051036        3.5314220509       19.0354706036
  H         6.4038098951        3.3440857737       20.6157691732
  C         5.6420535202        2.0009022383       19.1159468430
  H        11.1047275420        2.4099672018       22.5466063375
  H        11.6821167793        3.4026297592       21.1602740942
  C        12.7141800427        1.5504420018       21.4470529395
  C        10.3866171333        7.7880214947       17.3020193087
  C        10.2648976060        5.6879281899       16.1373784140
  H         3.0755880677        4.6614446053       29.6083527678
  H         3.6634894214        6.0221244178       28.9465118013
  C         1.8205795658        6.3068282260       30.2491327587
  H         5.3707849749       -1.2895198455       32.7366567666
  C         4.8068292603        0.1755055330       34.0639108278
  H         5.3350404210        1.2434501465       19.7945798579
  H         6.0705676168        1.5967494204       18.2008820188
  C         4.4255752462        2.8726983512       18.7408446215
  H        12.7013672144        0.9021687238       22.2627409434
  H        12.6394141363        0.9336887545       20.5288319793
  C        13.9658528234        2.4636963792       21.3897691147
  N        10.2049850767        8.7344178278       18.3633233119
  C        10.6775693552        8.5111643580       16.1567418364
  C        10.5174798972        6.3943604959       14.9118829901
  H        10.1528114303        4.6165703033       16.0543325955
  H         1.1698379521        5.5505775683       30.5976285147
  H         2.2592232937        6.6936162012       31.1473331729
  H         1.1009480689        7.0830208979       29.9097061191
  S         4.3546910867        1.7261172326       34.5917186714
  C         4.9145336974       -0.8449833577       35.0797392589
  H         4.2496862244        3.7605114911       19.3236961344
  H         4.6367376937        3.2432199548       17.7318045761
  C         3.1025156696        2.0984894489       18.5799583995
  H        13.9538757721        3.0426066699       20.5237851030
  H        14.7530055938        1.7289017787       21.1853242465
  C        14.1042017800        3.4021916009       22.6478647182
  S        10.1681294952       10.2067884626       17.8018168323
  N        10.5367754975        9.8602010715       16.2476796250
  C        10.8039410864        7.8685303681       14.9102472349
  H        10.4846242760        5.8772019247       13.8972474750
  C         4.2187165543        1.0383366741       36.2280527443
  N         4.5997553861       -0.2965303344       36.2741029506
  O         5.3644048536       -1.9951199974       34.8163486992
  H         2.3681216634        2.8822896970       18.1854634714
  H         2.7474069572        1.7444242296       19.5918703489
  C         3.2282708914        0.9395153958       17.5599939868
  H        14.4519105459        4.3107507360       22.3572694746
  H        13.1565410124        3.7165191419       23.0737581630
  C        15.0694822571        2.8189783779       23.6734382434
  C        11.1018061642        8.6554514598       13.7365226554
  S         3.7921154189        1.7273903443       37.7606301543
  C         4.7194348959       -1.0730909753       37.5194465399
  H         2.3446463374        1.0395991418       16.9008724437
  H         4.1596092323        0.8878603624       16.9419928718
  C         3.0723241854       -0.4895975571       18.1497951930
  H        14.7467421566        1.7460791313       23.7507514919
  H        14.9336623625        3.0033634408       24.7656871587
  C        16.5457376736        3.1162542123       23.2197420532
  H        11.0023430644        9.6916869856       13.8628177021
  C        11.6308454536        8.3204971138       12.5231256992
  H         3.9541793810       -0.9072223795       38.2198872907
  H         4.6662518372       -2.1608895534       37.4318433621
  C         6.1136770844       -0.8452390466       38.1544760229
  H         3.4171325833       -0.3556411937       19.2086037434
  H         3.7527108645       -1.1888062802       17.5731586933
  C         1.5981885857       -0.9771302207       18.4194295096
  H        16.5149655174        3.8107754166       22.4049698792
  H        17.0867237262        3.6493650136       24.0277066962
  C        17.1947203471        1.7618244846       22.8327985323
  S        11.9660545538        6.7343444034       11.9153796115
  C        11.8688724438        9.4285590599       11.5818286246
  H         6.8941757087       -0.4640142073       37.5441791369
  H         6.0151591626       -0.2470085240       39.0268473049
  H         6.4095671243       -1.8357334314       38.4829547331
  H         1.5528221116       -2.0640227069       18.7091096461
  H         0.9807378060       -0.9189372593       17.5328777760
  H         1.1781056019       -0.2721561452       19.1623303923
  H        18.2118136102        1.8377487554       23.1904626711
  H        17.2319841667        1.5828321871       21.7762678207
  H        16.7569066416        0.9302040246       23.4541378001
  C        12.4484596780        7.5119991662       10.4659282098
  N        12.3778189767        8.9194216945       10.4876291815
  O        11.4449256913       10.5702455400       11.6519309903
  S        12.5865232168        6.8220892544        8.8395330128
  C        12.6272484454        9.7843831406        9.3023541513
  H        12.8951493546       10.7880047676        9.6086304861
  H        13.4259511727        9.4726771133        8.6651451061
  C        11.4061152713        9.9144645626        8.4309465621
  H        11.2687738862       10.9338531748        8.0815301399
  H        11.6308855412        9.3844726131        7.5482915962
  H        10.4435168972        9.5649123487        8.8685613727
  H        21.8084655480       11.4026939803        4.0524865196
  C        22.1381689365       10.3334861028        4.0212674416
  H        21.2079861347        9.6989154356        4.1450616038
  C        22.9348283357        9.8781356387        5.2888077477
  C        22.8997102651       10.0587084898        2.7185753227
  C        22.2110989314       10.3586121017        6.5587537479
  H        23.0101173929        8.7412486628        5.3201376494
  H        23.9558253996       10.2442184898        5.1287181473
  H        23.7809738868        9.3880529813        2.8968612264
  H        23.2969967131       11.0040306248        2.3529184625
  H        22.1978487912        9.5015357380        2.0505977497
  C        21.3578393359        9.1817304754        7.0422458281
  H        22.9020698054       10.7231359933        7.2676335842
  H        21.6327071714       11.1692249005        6.2915629273
  C        20.3563550790        9.5960399264        8.1645845497
  H        21.9688335959        8.3238232553        7.4199561235
  H        20.7882487381        8.8150117913        6.1941081857
  C        19.2193284675       10.5936402875        7.8412022441
  H        20.8617864522       10.1073520502        8.9897786069
  H        19.9871699469        8.7602229384        8.7490416432
  C        17.9690603237        9.8236719127        7.3247720521
  H        18.9193523449       11.2668861371        8.7479628952
  H        19.5171727225       11.3205154532        7.1125273171
  C        16.7611259015       10.7113947916        7.1060759433
  H        17.6539989166        9.0475024209        7.9692626938
  H        18.0969522211        9.3385168261        6.3804988998
  C        17.0438158430       12.0398948264        6.4472144666
  C        16.3801763904       11.4418098300        8.3548809407
  C        15.5487432108        9.9507368163        6.3923324334
  C        16.7979212771       13.1416861825        7.1930292772
  C        17.4929432772       12.4132216263        5.1613515254
  C        16.3987201552       12.7724371114        8.4472832985
  C        15.9922660879       10.7463392953        9.5085215071
  H        15.8466067677        9.2183513736        5.6048648310
  H        15.0794200679        9.2037080059        7.0766925593
  C        14.4379065662       10.9711799237        5.9786529896
  S        17.0702886558       14.6178466543        6.3617081177
  C        17.5695341406       13.7396246649        4.9291484287
  H        17.8239142018       11.6911557984        4.3724653524
  C        15.9837734299       13.3485752442        9.6559634729
  H        16.0888979251        9.6822085264        9.4180139649
  C        15.4781065132       11.3213686557       10.6606066270
  H        14.8284723245       11.7119123605        5.3325896522
  H        13.9516862240       11.4975081687        6.7886725440
  C        13.4000108024       10.3316729786        5.0881925463
  C        17.9592853253       14.4324653689        3.6460920135
  C        15.5381667209       12.6618956365       10.7546159731
  H        15.9726525517       14.3925548569        9.5724103087
  C        15.0625655774       10.9223578572       11.9091553487
  H        12.4182969138       10.8089538126        5.2977118999
  H        13.2159941538        9.3266904433        5.3459336849
  C        13.6415186507       10.4386764460        3.5883610051
  C        18.0680614785       15.8167055585        3.4832932984
  C        18.3482836084       13.5716459312        2.4626163703
  C        15.1341756191       13.3551379979       12.0320499602
  C        14.7770610917       12.0148982792       12.6795252465
  S        14.9433221467        9.3744168099       12.6750017778
  H        14.7224036801       10.7437910647        3.4016526353
  H        13.0456750299       11.2910654921        3.3067003603
  C        13.3063420478        9.2419512649        2.7906030688
  N        17.8215437156       16.7472144893        4.4589819291
  C        18.2896169885       16.3334688409        2.2800850646
  C        18.7484787572       14.0638299813        1.2340512782
  H        18.3452274549       12.5083865650        2.4774645530
  C        13.9148993223       14.2489726821       11.8783937754
  C        16.3239227602       14.1024481054       12.7277724328
  C        14.4469306848       11.5956313045       13.9782704319
  C        14.3973372212       10.2563103392       14.1115172781
  H        14.2388404689        8.6381152716        2.7715495857
  H        12.5198618904        8.7484065155        3.1690843598
  C        13.0163151607        9.7750335650        1.3885322423
  S        17.7808086767       18.2327099679        3.7538453002
  N        18.2193493784       17.7425606556        2.2544219883
  C        18.5686268051       15.5892985860        1.1637323963
  H        19.1150964697       13.4462384807        0.4386119895
  H        14.0062036266       14.8854826581       11.0925374381
  H        13.8852251532       14.9070066585       12.7554772788
  C        12.6282550530       13.4829632210       11.6954281878
  H        16.5877223842       14.9363225185       12.0236253251
  H        16.1045879577       14.5902637800       13.5995896663
  C        17.5373371161       13.1861540093       12.9625335440
  H        14.3025132962       12.3634041606       14.7808891639
  C        14.1472093018        9.6093509994       15.4315172115
  H        13.7327801536       10.6229376467        1.2477945499
  H        11.9618054836       10.1237141390        1.4181632428
  C        13.1132129713        8.7443382608        0.2901713226
  C        18.8835517503       16.2693024157       -0.0742673281
  H        12.5614513120       12.9847779824       10.6964315480
  H        12.4821943749       12.7721527252       12.5492533981
  C        11.3397124739       14.3097677276       11.6661884530
  H        17.9277236191       12.6800862739       12.0960829704
  H        17.2962942015       12.5037809596       13.7655442955
  C        18.6311311415       14.1557049729       13.4585898054
  C        14.0479949933        8.2083281942       15.6808180664
  C        14.2424271103       10.3908082874       16.7179520528
  H        14.1495532197        8.3855458179        0.2328336517
  H        12.4352967253        7.8516950797        0.5881129134
  C        12.7448804603        9.2775089108       -1.1297424134
  H        18.6680642407       17.3059051072       -0.0712282935
  C        19.2573144257       15.7695890095       -1.3050588959
  H        11.4380989333       15.0865259653       10.9367592906
  H        11.0375108587       14.8133378061       12.6204493418
  C        10.0613491482       13.5393165903       11.2336309858
  H        19.0338013451       14.6080541289       12.5113797423
  H        18.1629437799       14.9893711749       14.0244603118
  C        19.7923636058       13.5371330240       14.2568936342
  N        14.1145516664        7.1927986206       14.6961609189
  C        13.8293479052        7.6414836020       16.9839443249
  C        13.8527350932        9.9017992081       17.9907358369
  H        14.3499757297       11.4520803630       16.6355222627
  H        13.2514137376        8.7759346446       -1.9184651495
  H        12.9103744314       10.3830445785       -1.2145630833
  H        11.7390953386        9.0600612564       -1.3326946090
  S        19.6598507453       14.0893596927       -1.7717820676
  C        19.3518316530       16.7215049657       -2.3884963944
  H        10.4219406406       12.6616929973       10.7345021950
  H         9.6443423219       13.0964625186       12.1381408382
  C         9.0032972736       14.2949694827       10.4294338501
  H        19.9033957065       12.5221514500       13.8206234639
  H        19.5327062166       13.4542637363       15.3599831279
  C        21.1439630169       14.3800668740       14.2675560260
  S        14.2582307107        5.7222641570       15.3422593228
  N        13.7991389777        6.2486316018       16.8883111309
  C        13.6683299193        8.4437984928       18.1902742969
  H        13.7716923422       10.5926724290       18.8191608915
  C        19.6841161461       14.6740154198       -3.3645982510
  N        19.5450600625       16.0100070089       -3.5267176507
  O        19.2017615989       17.9135002413       -2.1859848097
  H         8.3635324924       14.7340383888       11.1856540826
  H         9.3250603731       15.2031839474        9.8964893901
  C         8.2776557790       13.4301224824        9.4602051205
  H        21.9378075043       13.7301887824       14.6543703225
  H        21.4953614092       14.4584937376       13.2368305232
  C        21.1283483694       15.7136814047       15.1221661707
  C        13.2927419974        7.7447385564       19.3891723184
  S        20.0576647802       13.6087881452       -4.7012567691
  C        19.4917099207       16.7483605507       -4.7815566287
  H         8.7369682589       13.3143026131        8.5198746364
  H         8.2361635168       12.3915890636        9.9414611993
  C         6.8458841218       13.8719476830        9.2530607370
  H        21.5210757078       15.5779992831       16.0839296450
  H        20.0270044255       15.9147696719       15.3648917694
  C        21.9646027646       16.7963486368       14.3680506115
  H        13.6148589850        6.7055715477       19.4290676061
  C        12.5597771405        8.1406452635       20.4510579465
  H        20.2498975363       16.3913065947       -5.5115363289
  H        19.8683674576       17.8167544508       -4.5557075898
  C        18.0523794178       16.8196768666       -5.2893999189
  H         6.4181372174       13.4979665827        8.2962182064
  H         6.8465884757       14.9296770436        9.0649475431
  C         6.0942142741       13.4505287478       10.4939931532
  H        22.6220532662       16.3369381065       13.5615751353
  H        21.2362346612       17.4169227434       13.8900338811
  C        22.9357120872       17.6765441443       15.1443055786
  S        12.0413384509        9.7608012873       20.8321013582
  C        12.3625501670        7.0825954381       21.4702748728
  H        17.7885586229       15.8821837346       -5.7146377662
  H        17.8121079816       17.7044298769       -5.9802445323
  H        17.3346004962       16.9372532944       -4.4289408494
  H         6.1243616900       14.2069472111       11.2494433046
  H         5.0786824991       13.2294424229       10.1400145112
  H         6.3690544314       12.4493188591       10.8719962117
  H        23.5613916976       16.9890407922       15.6736001264
  H        23.4817597479       18.2583383347       14.4131857437
  H        22.3616785127       18.3502684824       15.8112708805
  C        11.6600269655        9.0311132774       22.4223721992
  N        11.8881833324        7.6840412190       22.5652835031
  O        12.6858517638        5.8578172502       21.3895791149
  S        11.0295058256        9.7270273296       23.8028361601
  C        11.6929823630        6.9170344058       23.8095265959
  H        11.4379735883        5.8923089290       23.5129829748
  H        10.9092705870        7.2692182394       24.4164204765
  C        12.9796605952        6.8203499942       24.6515518574
  H        13.9211769247        7.0328580579       24.1058303032
  H        12.9699647901        5.8351031129       25.1074007045
  H        12.7810896433        7.5772198663       25.4948551300
