352
 i =     8700, time =     8700.000, E =        23.9676895950
  H        12.0793324601        6.9182399222       32.2015065105
  C        11.4388089356        6.0407157650       32.3490870121
  H        12.1085483973        5.2343570780       32.1204697730
  C        10.4575235612        6.2262541441       31.2165849526
  C        10.9367367574        5.8981723164       33.7853053439
  C        10.9187274334        5.4860257898       30.0124946163
  H         9.4390537174        5.8496681616       31.4884669592
  H        10.4240079849        7.3129002936       30.9651381736
  H        10.5008227927        6.8429356883       34.0890723526
  H        10.2713845343        5.0346902523       33.7824746995
  H        11.8011914737        5.7808566258       34.4633159590
  C         9.8002152083        5.6216818722       28.8961439521
  H        11.0397129618        4.4069241480       30.0751031755
  H        11.9138680603        5.7540224166       29.5570951058
  C        10.3272524830        5.2827215578       27.5184215830
  H         8.9291122517        4.9727930551       29.1622991617
  H         9.3150037843        6.6480566737       28.9564957177
  C         9.2818544207        4.7410238486       26.5265662734
  H        11.2202535433        4.5065956428       27.5941843125
  H        10.8066321044        6.1744220538       27.0659280352
  C         8.1585012425        5.7353323844       26.1465022214
  H         9.8205182522        4.5058507062       25.5773777622
  H         9.0166290971        3.7509536080       26.9351294800
  C         7.0538835209        5.0370520107       25.3435619367
  H         7.7090809577        6.0703016556       27.0421037834
  H         8.5425742187        6.5810176718       25.6468040078
  C         6.7343336534        3.6872017229       26.0395842837
  C         7.4462715299        4.2743855126       24.1155719802
  C         5.7677195625        5.8908731521       25.2453020521
  C         6.9705883198        2.5900136514       25.2745770765
  C         6.2680889680        3.2938506696       27.3071687736
  C         7.4167392501        2.9614203361       24.0208685181
  C         7.9077108756        4.9482434839       22.9940461170
  H         6.0023715405        6.8556636081       24.7203141684
  H         5.5170189784        6.1479266524       26.2793698971
  C         4.6128566980        5.1580377847       24.6258359046
  S         6.7322317032        1.0787709788       26.1584229123
  C         6.2893318192        1.9286096581       27.5794310781
  H         5.9790093135        4.0673280231       27.9900757050
  C         7.9418860294        2.3190233764       22.9508637565
  H         7.6838156745        5.9771408486       22.9676073966
  C         8.4247028844        4.3974078623       21.8801077347
  H         4.7873132220        4.9505734750       23.5693594571
  H         4.3946866244        4.2039966944       25.0699499804
  C         3.2712303815        5.9263236429       24.7397351639
  C         5.7774822357        1.2860830674       28.8496340836
  C         8.4126438772        3.0441656568       21.7837753244
  H         8.1239540278        1.3023365864       23.0104070737
  C         8.8027211060        4.7740183697       20.6351893140
  H         2.6608551378        5.2719201210       24.2459564387
  H         3.1221342143        6.8748838261       24.1162356990
  C         2.5667164127        6.1294535464       26.0619865994
  C         5.7480047281       -0.1093280621       29.0868981005
  C         5.2502277081        2.1209735216       29.9893154036
  C         8.8903365137        2.3522920227       20.5172121460
  C         9.1509988458        3.7200330172       19.7913344506
  S         9.1123111533        6.3423080225       19.9931508230
  H         1.4579865268        6.1251271360       25.9875690705
  H         2.7893744884        7.1197924682       26.4912761312
  C         2.9694900930        5.0298470887       27.0724518469
  N         6.1262940999       -1.0531058967       28.1332856912
  C         5.4521206269       -0.6545850286       30.3599090606
  C         4.8985541881        1.5594048905       31.2425322563
  H         5.0715856910        3.1796101253       29.8507680727
  C         7.7554643443        1.5794336259       19.7590125726
  C        10.2445731960        1.6465928335       20.6205973295
  C         9.5245838904        4.1642775199       18.5520428031
  C         9.5420459099        5.5431081646       18.4853872590
  H         3.0090056766        4.1146448703       26.5801076157
  H         3.9111137331        5.1349091570       27.4917369475
  C         1.8919387026        4.9894857627       28.1826781236
  S         6.0654431685       -2.5679228947       28.8495468802
  N         5.5013531214       -2.0225587890       30.2994365315
  C         5.1446188498        0.1237372638       31.5197414271
  H         4.3688406924        2.2074154204       31.8929809837
  H         7.6135559835        0.7240388979       20.4053858205
  H         8.1531526108        1.1991168333       18.8144683816
  C         6.4669472236        2.3849598550       19.5117318160
  H        10.4789083484        1.2761903312       19.6212468353
  H        10.2316595102        0.7002738668       21.1875012894
  C        11.3422203197        2.5595092422       21.2147761500
  H         9.7950500953        3.5026023798       17.7472636928
  C         9.8296478506        6.2713095940       17.2078153804
  H         1.6705700613        3.9283889016       28.3244888945
  H         0.9101122547        5.3199410676       27.8003508058
  C         2.2490764241        5.5981667006       29.5951753003
  C         4.9269307961       -0.5357631178       32.7922710747
  H         6.6521051096        3.2990243445       19.0488149830
  H         5.9742133581        2.6662906404       20.4897190154
  C         5.4069707658        1.6191392440       18.7622764606
  H        10.8750422145        3.0626138405       22.0529943430
  H        11.5778017843        3.3257065465       20.5902768113
  C        12.6249204085        1.9144013541       21.8184498461
  C         9.8748353833        7.6815896853       17.0356303111
  C        10.1011235675        5.5136290285       16.0006751216
  H         3.1316164204        5.1140309293       30.0276055130
  H         2.5076527121        6.5879821179       29.3518579105
  C         1.0076490200        5.5597757501       30.5157300857
  H         5.0674430899       -1.6251594419       32.8372531036
  C         4.8259807699        0.1226846634       34.0247408482
  H         5.1370198669        0.7275630892       19.3524612271
  H         5.7264383462        1.1297795491       17.8054088186
  C         4.0951870591        2.3843500520       18.5596091705
  H        12.3024042405        1.1252097681       22.4770338804
  H        13.1278363646        1.3415262008       21.0633057473
  C        13.5077524058        2.9572083651       22.5176271131
  N         9.6166900763        8.6121095316       18.0218133994
  C        10.1764525587        8.2704339566       15.8218696611
  C        10.4181843243        6.1167889759       14.8505127625
  H        10.0415829621        4.4649274523       16.1002530296
  H         1.1838727222        5.9059448105       31.5509394824
  H         0.2048298130        6.2037215954       30.1676952315
  H         0.5298630263        4.5473119822       30.5015493595
  S         4.7901354107        1.7631688584       34.4121730244
  C         4.6480399670       -0.7541338235       35.1952074383
  H         4.2961651817        3.4319468263       18.8964337980
  H         3.9513758174        2.6329340231       17.4774798295
  C         2.8510113450        1.6695711322       18.9670185706
  H        12.9519037985        3.6570833087       23.0475486625
  H        13.8599644539        3.6033059166       21.7662073674
  C        14.5631756677        2.3570406392       23.3884454459
  S         9.7305077454       10.0738966868       17.4162013462
  N        10.0209761229        9.6418045599       15.9025960892
  C        10.6179474144        7.5522474334       14.6511184818
  H        10.6798034817        5.4721877568       14.0664433550
  C         4.3780406711        1.2724474602       36.0972958754
  N         4.3326444827       -0.0818915948       36.2789868878
  O         4.7185425792       -1.9935049059       35.1656697675
  H         2.1956603326        2.4489351042       19.2985950141
  H         3.0985151590        1.0001832671       19.7471555190
  C         2.1006810511        0.7818038356       18.0158852707
  H        14.6361432637        2.9804790075       24.2630456012
  H        14.2639710876        1.3267463291       23.5183112042
  C        15.8383051535        2.4373930063       22.6048491743
  C        10.9302613374        8.2525365551       13.4831977661
  S         3.7416136912        2.2997880290       37.4613907558
  C         4.1934155438       -0.8226361825       37.5479779685
  H         1.1580534021        0.4470908349       18.4920540708
  H         1.8586695634        1.2913969976       17.0946257743
  C         2.9019359461       -0.5390972495       17.5355721315
  H        16.0862902443        3.4715990947       22.3149377544
  H        15.5239220687        1.9566886563       21.6621086033
  C        16.9646484323        1.6029339681       23.3590992696
  H        10.5937880237        9.3147886601       13.5377920386
  C        11.3574599662        7.8405097342       12.2299915536
  H         3.7773323411       -0.2632046361       38.3251833419
  H         3.4399233055       -1.6254415519       37.3790239493
  C         5.5387437006       -1.2737183898       38.1412756726
  H         3.5650893273       -0.8911507523       18.3487029904
  H         3.5492118739       -0.1880283482       16.6994186680
  C         1.8935054548       -1.7055716831       17.1274979810
  H        17.0762764410        2.0096150498       24.3595578214
  H        16.6117108052        0.5828502097       23.5548761815
  C        18.3627586988        1.6228103227       22.7368846766
  S        11.9077695658        6.2586363796       11.9359322091
  C        11.5106277096        8.7977018471       11.1505002287
  H         5.5813354392       -1.2069335383       39.1537190012
  H         5.7439743344       -2.3327394375       37.9197616672
  H         6.3740644250       -0.7078736258       37.6390420205
  H         1.3381568703       -2.0702328313       17.9537531498
  H         2.3837005069       -2.5088317402       16.6776558107
  H         1.0799282230       -1.3378229033       16.4666501646
  H        18.8777785882        0.8867214155       23.3125577248
  H        18.9192814795        2.5054834048       22.6796523618
  H        18.4212472983        1.2485452973       21.7279550211
  C        12.1266038176        6.8115215370       10.2508900033
  N        12.1276971619        8.1092555233       10.1558852707
  O        11.2236829252       10.0060626981       11.2141195775
  S        13.1503234987        5.9321048986        8.9944038623
  C        12.3846302329        8.8024718985        8.8945788446
  H        12.5356362476        9.8147241510        9.1818091256
  H        13.3024364552        8.5023770102        8.4737620138
  C        11.2189183826        8.6580318826        7.9751999062
  H        10.5159703834        7.9758650368        8.5672902386
  H        10.7505861532        9.6199937579        7.8811346908
  H        11.4677733459        8.2649345251        7.0264368909
  H        21.1087219761       11.2166705508        3.0598238074
  C        21.5893530225       10.2949952903        3.1499231290
  H        20.8976310811        9.4549493648        3.2528686310
  C        22.4391868141       10.5228773577        4.3954238813
  C        22.4586402637       10.1366517355        1.9013587864
  C        21.5304621239       10.7070922703        5.6069360145
  H        23.0343545586        9.6640957844        4.4307005745
  H        23.1461700845       11.3736068997        4.2343636585
  H        23.1435898970        9.2455738525        1.9435892614
  H        22.9592209240       11.0990393465        1.7320932328
  H        21.8176630618        9.9087407075        1.0614325997
  C        21.0418836899        9.4254513382        6.3029062649
  H        22.1111666977       11.2582515664        6.3461522229
  H        20.7012546023       11.4023407394        5.3813531621
  C        20.3581234695        9.6256604712        7.6556697957
  H        21.9861966041        8.8564079940        6.5229573676
  H        20.3083962824        8.9371424681        5.6563564083
  C        19.0149607559       10.4760346900        7.5934863232
  H        21.0959410939       10.1664757795        8.3424580343
  H        20.2481903813        8.7790438030        8.2357390674
  C        17.8073846369        9.8167730023        6.9243927648
  H        18.7763457366       10.8325983815        8.6201605024
  H        19.1349224786       11.4686539500        7.1514960760
  C        16.5653151607       10.7069001567        6.8158244039
  H        17.6142853558        8.9478621159        7.5554432818
  H        18.1347325250        9.4173561854        5.9586692129
  C        16.9149905483       12.0312073507        6.1525585694
  C        16.3352459458       11.3239646988        8.1587633726
  C        15.3067701562       10.0242616281        6.1630636599
  C        16.7668225542       13.0320996261        7.0576051065
  C        17.2857088592       12.4385085110        4.8862951195
  C        16.3169690827       12.6434146918        8.2688604617
  C        15.8015512493       10.5665352947        9.2714149554
  H        15.5894066768        9.5530387732        5.1995034448
  H        14.9767841707        9.3066100071        6.9044092997
  C        14.0293956910       10.9701267566        5.9108445556
  S        17.1692225369       14.5996144451        6.3566544235
  C        17.4417314387       13.7770537497        4.8413225056
  H        17.3491436526       11.6532379206        4.2175484061
  C        16.0205101987       13.1796234669        9.4559836196
  H        15.6497528616        9.5124324791        9.1396344919
  C        15.3899439462       11.1991415654       10.3939616271
  H        14.3465572262       11.9321353779        5.4604209943
  H        13.7329400436       11.1260853565        6.9530155968
  C        12.8635290781       10.4193264007        5.0002410449
  C        17.8607276603       14.5658174102        3.6304551977
  C        15.5094664381       12.5307691840       10.5759015807
  H        16.1568901113       14.2482830669        9.6075673079
  C        14.9749539361       10.7918224305       11.6403125133
  H        11.9286506734       10.8757603851        5.3173772220
  H        12.8106849332        9.3153827539        5.0724091191
  C        13.2089320253       10.7257676242        3.5343288808
  C        17.8446757231       15.9557891898        3.4274692727
  C        18.5087894054       13.7548886956        2.5350484268
  C        15.1014594320       13.2149262975       11.7581847199
  C        14.7728852565       11.8982386682       12.4433803577
  S        14.7174780237        9.3360996942       12.5118210055
  H        14.1640654322       11.1445736892        3.5133691486
  H        12.6094093793       11.5388700786        3.1779595024
  C        13.2082462947        9.5668015199        2.6008893734
  N        17.4193162652       16.8784136877        4.3867868209
  C        18.2175411439       16.5615400900        2.2326165554
  C        18.8116906581       14.3464170003        1.2885100839
  H        18.6486127105       12.6997740255        2.8087894055
  C        13.8764736944       14.1107956870       11.6418409686
  C        16.1565572690       13.9602026018       12.5718422038
  C        14.4069982354       11.5872160778       13.7452327424
  C        14.3314783666       10.2330780187       13.9077581783
  H        13.9238071671        8.7409436822        2.8432446108
  H        12.2153035450        9.0685905863        2.5669072246
  C        13.6745100518       10.1040048106        1.2922348717
  S        17.4713968276       18.3508218393        3.7487543208
  N        18.0508686350       17.9328744246        2.2771174081
  C        18.6070257440       15.8396030440        1.0658302365
  H        19.2555091093       13.7849434389        0.4963687259
  H        13.9619167514       14.8161169917       10.8365085487
  H        13.8172573663       14.7175651236       12.5383001031
  C        12.6081486617       13.3318430099       11.2028255501
  H        16.6430794414       14.5124234203       11.8475484215
  H        15.7680984710       14.6771909242       13.2509097215
  C        17.2472978271       13.1262228831       13.2348324296
  H        14.3829953381       12.3073003570       14.4943697250
  C        13.9687793193        9.5285893459       15.1864958739
  H        14.7044110203        9.8615404845        1.2522726884
  H        13.4152324078       11.1011569409        1.3842117252
  C        12.9784706365        9.5350925755        0.0004733647
  C        19.0564786391       16.4491472585       -0.1393888698
  H        12.7864955941       12.7985489158       10.3050822052
  H        12.2955309007       12.6230447436       11.9567607791
  C        11.4634115654       14.3122072563       11.0243465209
  H        17.5817605404       12.4271134131       12.4479208965
  H        16.9292269907       12.4355290960       14.0731819125
  C        18.4087917865       14.0190245292       13.7099281411
  C        13.8633474535        8.1179490195       15.4435304438
  C        13.7776947322       10.3912237944       16.3855812872
  H        13.2817495240        8.4918170217       -0.0638812885
  H        11.8899457187        9.5244625867        0.1007327968
  C        13.3225666107       10.3967826856       -1.2509556968
  H        18.9000424290       17.5074437623       -0.0511988998
  C        19.4154408140       15.9988972023       -1.3930366137
  H        11.6356503158       14.9369750188       10.1952803516
  H        11.3134545575       14.9192075244       11.8731467346
  C        10.0793072753       13.6392012647       10.7615753155
  H        18.7541302747       14.7905639530       12.9584720415
  H        17.8929753172       14.6723223334       14.4474077980
  C        19.5102248068       13.2190392402       14.2542950178
  N        14.0771882368        7.0722113459       14.5316123695
  C        13.4785095192        7.7095413204       16.6905958323
  C        13.4071348330        9.8832042150       17.6516743444
  H        13.7633775878       11.4295710078       16.3117074446
  H        12.7077098198       11.3046836201       -1.4057662668
  H        13.2304384186        9.8639080671       -2.1559431570
  H        14.3997875362       10.7073209718       -1.0768388931
  S        19.6949358362       14.4428911614       -1.9621600996
  C        19.5649172845       17.0463924558       -2.4144123033
  H        10.0853680946       12.5259041293       11.0003873915
  H         9.3139302920       14.0850463665       11.3985138169
  C         9.5533897799       13.8470241751        9.3579916442
  H        19.8268748304       12.4079232437       13.5173260745
  H        19.2699674996       12.6645108244       15.0889571487
  C        20.7529364484       14.0959334441       14.5483992808
  S        13.9648071843        5.6728691427       15.3070165628
  N        13.3834005062        6.2992396506       16.6927265701
  C        13.2382511742        8.4657470934       17.9075388778
  H        13.3149907790       10.5681077436       18.5080826286
  C        19.8988360772       15.1692295006       -3.5766332476
  N        19.8879871583       16.5127754920       -3.5987548940
  O        19.3614891753       18.2173178096       -2.1676032700
  H         9.4267635382       14.9094315771        9.1427789037
  H        10.1630097825       13.4399516869        8.5575128859
  C         8.2012121910       13.2301199623        9.1483916449
  H        21.7457046535       13.5110746730       14.5224803052
  H        20.8572881652       14.7571217359       13.6681793323
  C        20.8581242303       14.7846860997       15.9329421815
  C        12.9174765834        7.7868532635       19.1226370818
  S        20.1922150656       14.2143505033       -5.0402498366
  C        20.0004976085       17.3129428791       -4.8440872904
  H         7.9400003716       13.4211485773        8.1025877784
  H         8.3316722079       12.1229221728        9.2665714246
  C         7.0849687065       13.7497605688       10.0543960725
  H        21.3590753696       14.1064125840       16.6089871055
  H        19.8517021920       15.0306006838       16.3201626019
  C        21.4565707032       16.2093912498       15.7415131351
  H        13.1610061462        6.7149169596       19.1355266719
  C        12.3745464397        8.2248563042       20.3073027625
  H        20.6594069338       16.8961226626       -5.6469716673
  H        20.3468486392       18.3000915387       -4.5328300905
  C        18.5572797175       17.3505079492       -5.4484081228
  H         7.0887821558       14.8191234255       10.3330747306
  H         7.1871900954       13.1238451798       10.9084852219
  C         5.6725392351       13.5581503358        9.5060373186
  H        21.5648792724       16.6708022206       16.7298823319
  H        22.4114127850       16.2213566357       15.3355571387
  C        20.5265819774       17.1018090277       14.9659792317
  S        11.9595977825        9.8882984678       20.7369587543
  C        12.1535886243        7.2063245094       21.4088727961
  H        18.5927994096       17.7719225815       -6.4442768604
  H        17.9020412569       17.9322504484       -4.8351424583
  H        18.0368843321       16.4026568675       -5.4070333119
  H         5.0140907057       14.0478514796       10.1848832884
  H         5.5210326975       13.9713665650        8.5351893932
  H         5.4707892649       12.4816361932        9.5162949237
  H        20.8813124654       17.1425545461       13.8884543412
  H        19.5457614741       16.5716475468       14.8147654229
  H        20.3500465116       18.1140998941       15.3769328956
  C        11.2418012754        9.2146339852       22.2089157598
  N        11.3910952210        7.8625669274       22.3650709704
  O        12.5862712571        6.0455836333       21.3670304276
  S        10.6472435092       10.1484832805       23.5132796734
  C        10.9287875238        7.1495278848       23.5580794764
  H        10.6740030241        6.1268032196       23.2467075206
  H         9.9914333248        7.6262626158       23.8719794793
  C        12.0797576181        7.1224151257       24.6049905533
  H        11.9216938894        6.3830423639       25.3184824849
  H        12.2731379389        8.0493176862       25.1520833373
  H        12.9758473339        6.8244576159       24.1068775174
