352
 i =    32600, time =    32600.000, E =        25.1975290205
  H        12.3190507701        5.1768472509       32.0504726967
  C        11.2931999315        5.4129870587       32.1686460814
  H        10.7535763633        4.6092655200       31.5926451234
  C        11.0890002167        6.7788746340       31.4548221539
  C        10.7832256774        5.3927607620       33.6471633738
  C        11.4740706827        6.8629043378       30.0294351250
  H        10.0617295298        7.1440624776       31.4952792626
  H        11.7233574413        7.4486348996       31.9608858317
  H         9.7137773200        5.8084015694       33.6315426064
  H        10.7424172668        4.3899271309       34.1690803813
  H        11.3716897611        6.0421525075       34.2497438726
  C        10.3974530386        6.3222161605       28.9978514442
  H        12.4568663556        6.3267668793       29.9638757271
  H        11.5588909484        7.8859432281       29.8150317710
  C        10.9243601886        6.3377235573       27.5632240150
  H         9.9511297584        5.3464856215       29.2162356092
  H         9.5881982481        7.1119203507       28.9156056876
  C         9.8790033649        5.5776846678       26.6754571603
  H        11.8797560760        5.7391088549       27.5668576401
  H        11.1148895009        7.4058968285       27.3203211504
  C         8.6491832046        6.3530953723       26.3038947639
  H        10.3384555849        5.2208607292       25.7817711370
  H         9.6031754532        4.7572119272       27.2838611128
  C         7.5348837304        5.5583467500       25.5903586069
  H         8.1340883932        6.8688948202       27.1084703996
  H         8.9758317025        7.1687372728       25.6709196825
  C         7.2376433188        4.1247501371       26.2324968041
  C         8.0324436827        4.8506991861       24.3013200575
  C         6.1837618180        6.3041815928       25.4788629339
  C         7.5559192514        3.0845728716       25.3859799912
  C         6.6810483680        3.6857866345       27.4262493286
  C         7.9765045704        3.4932989442       24.1641596911
  C         8.4678694560        5.5140813778       23.1354008705
  H         6.2702840003        7.2686807541       25.0597866373
  H         5.8015629341        6.4355772160       26.5079985474
  C         5.1662111145        5.6119321584       24.6096465555
  S         6.9726989694        1.5740550622       26.0442333213
  C         6.5852953756        2.3488149739       27.5329328714
  H         6.3593026261        4.3436074014       28.1754744048
  C         8.2450836863        2.8549763810       23.0016343915
  H         8.4599357565        6.6214389045       23.1206728851
  C         8.7813460267        4.9017929715       21.9628509151
  H         5.4979978945        5.3709460647       23.6393457629
  H         4.8495808090        4.6349514376       25.0473989977
  C         3.7555333084        6.3205982602       24.5359984677
  C         6.1189881727        1.6155799724       28.7784982841
  C         8.7200102786        3.5167571048       21.8303273864
  H         8.2253412145        1.7793969289       23.0513745779
  C         9.1813803001        5.3270240729       20.7147176138
  H         3.2774214197        5.6702230110       23.7790709401
  H         3.8434335011        7.2677192874       23.9813754773
  C         2.9922216173        6.5382595417       25.8161361764
  C         6.0330838176        0.2194141465       28.9233670632
  C         5.7601820138        2.3791489072       29.9851840869
  C         9.0415179672        2.8686645726       20.6089544399
  C         9.3398567502        4.2565648375       19.8906922041
  S         9.4514548485        6.7515979586       19.9082536617
  H         2.1951206648        7.1573684034       25.4926485682
  H         3.6705924606        7.0847010564       26.4611142102
  C         2.4254296303        5.3329236728       26.5518826400
  N         6.4518752737       -0.7000743402       27.9734327710
  C         5.6120948203       -0.4093473150       30.1129689539
  C         5.3494490441        1.7979367544       31.1291843500
  H         5.7675835925        3.4679968655       29.9467484559
  C         7.9021508101        2.1165477185       20.0154389394
  C        10.2582089973        1.9227252618       20.7312934463
  C         9.8544978620        4.6158484877       18.6282708838
  C         9.8590787847        5.9433974583       18.4109253575
  H         1.8506007973        4.6948558509       25.8465146307
  H         3.2091946308        4.6166145173       26.7720110972
  C         1.6224569360        5.6172558484       27.7510810872
  S         6.2845179765       -2.1658101125       28.5673888822
  N         5.6258084790       -1.7792270408       29.9718387766
  C         5.4204183027        0.3017444199       31.3024679576
  H         5.1045092292        2.4573978929       31.9517204168
  H         7.3689827731        1.5698126980       20.7708192036
  H         8.1588552465        1.4798898318       19.1616745359
  C         6.8009042321        3.0104545595       19.4000219861
  H        10.5343045575        1.5754131332       19.7754428722
  H        10.1386147482        1.1029895586       21.4263637231
  C        11.4999867268        2.6885309655       21.1980048150
  H        10.2111337299        3.8476914471       18.0223363431
  C        10.2533084043        6.6443466909       17.1109763363
  H         1.2499607505        4.6863524397       28.1236713635
  H         0.8345002973        6.1700907839       27.2733624691
  C         2.3049604994        6.4847643289       28.7942049620
  C         5.1701603908       -0.3964402534       32.4733497822
  H         7.1873041483        3.6867156686       18.6235287492
  H         6.2979670241        3.5411142630       20.2520563541
  C         5.7332888744        2.1655293341       18.6344777570
  H        11.3402203780        2.9798941903       22.2770193808
  H        11.6203506764        3.5268384183       20.5068783682
  C        12.6680088756        1.7284803586       21.0163641007
  C        10.3222149710        8.0413165177       16.8853241859
  C        10.6107897002        5.7996651232       15.9365461481
  H         2.8170430022        7.3361066095       28.4064797510
  H         1.6615491178        6.8357259940       29.6010973738
  C         3.2232857532        5.6322478626       29.6227398802
  H         5.3680452093       -1.4262336592       32.3331909838
  C         4.7235947459        0.0128902041       33.7280595489
  H         5.1175064537        1.5495809375       19.2836755570
  H         6.2706016296        1.3186864530       18.2107736012
  C         4.8354372271        2.9810859424       17.7085612621
  H        12.7793482538        1.1204702018       21.9131735649
  H        12.5339719922        1.1132100519       20.1881791163
  C        14.0588721542        2.2967605597       20.9370046376
  N        10.0536386133        9.0778787452       17.8286305424
  C        10.7008439224        8.5490308251       15.6450322030
  C        11.0667922478        6.3017035770       14.7468180824
  H        10.5068678268        4.7468992186       16.0725759081
  H         2.8735217194        5.0957499381       30.4503706587
  H         3.9678469801        4.9799672886       29.2114351791
  H         3.8502120569        6.3546457114       30.1322767429
  S         4.4938501259        1.6346639599       34.3266182740
  C         4.5103337683       -1.0280549958       34.7083602665
  H         4.9088020864        4.0109234086       18.0479023908
  H         5.3754223123        2.9089073818       16.7217013326
  C         3.4176121376        2.4325885186       17.7246181421
  H        13.8462272148        3.0113720417       20.1364794594
  H        14.7269953975        1.5793025080       20.5135109412
  C        14.6170943276        2.9463052384       22.2123874266
  S        10.1950502989       10.4909875707       17.0389507393
  N        10.7077350323        9.9459437208       15.6049909838
  C        11.0330259766        7.7238705271       14.4810211730
  H        11.3384705555        5.7293415900       13.9154176725
  C         3.9806732382        0.9077428250       35.8188847785
  N         3.9954727354       -0.4576487006       35.8557254126
  O         4.6490425434       -2.2720098311       34.5253030249
  H         2.8012753057        3.2322410867       17.2290569841
  H         3.1254973508        2.3963967744       18.7402423573
  C         3.3673952228        1.0547485510       16.9805342657
  H        15.2598134650        3.7135420721       21.9110108580
  H        13.7955922975        3.4187472327       22.6906835976
  C        15.3135836971        1.9336668557       23.1466143106
  C        11.3632550218        8.3691794622       13.2619255324
  S         3.7759416409        1.7785385020       37.3276417002
  C         3.9278529292       -1.1837909370       37.0747230548
  H         2.5482093474        0.9927556277       16.2957382986
  H         4.2999125249        1.0906329177       16.3747653544
  C         3.2847299317       -0.3220519769       17.7354541936
  H        15.4925898364        1.1048488584       22.4945357297
  H        14.7048875716        1.5586318243       23.9624724708
  C        16.6616885028        2.4292003953       23.7313814102
  H        11.0217000006        9.3879393748       13.1495922775
  C        12.0358306386        8.0092594334       12.1179429801
  H         3.2161228552       -0.9592389388       37.8119536642
  H         3.6191369290       -2.2055342137       36.8592563982
  C         5.2820946215       -1.2256836102       37.7338816603
  H         3.6893481743       -0.1831030334       18.7043947514
  H         3.7910056878       -1.0752498275       17.1904168256
  C         1.9147352789       -0.9522458213       17.7923714846
  H        16.4711383461        3.4739999609       23.8942872064
  H        16.8769989880        1.9893826108       24.7176485527
  C        17.8707237293        2.2735266208       22.7628539397
  S        12.6790601504        6.4277211186       11.7885949398
  C        12.2233538567        9.0161709966       10.9746448516
  H         6.0941031282       -1.1194112125       37.0328250532
  H         5.3334918374       -0.4159963129       38.4708314658
  H         5.1612624933       -2.1754607436       38.3093718690
  H         1.9463194974       -2.0107547876       17.8931835673
  H         1.2291817495       -0.8879591046       16.9379989602
  H         1.4527688453       -0.4965901810       18.6966500801
  H        18.3059560409        1.3327348424       22.6302411571
  H        18.6460351308        3.0013907383       22.9774420438
  H        17.5562254550        2.5318356368       21.7037487217
  C        13.2263860393        7.1471745615       10.2467145661
  N        12.8610920433        8.4293786992        9.9641763998
  O        11.7814980693       10.1881616203       10.9975623370
  S        14.1269146973        6.2381986565        9.0298930577
  C        13.0140683247        9.1846540570        8.6814269697
  H        13.0242610893       10.2288275521        8.9225790996
  H        13.8847164624        8.9044502143        8.0604680538
  C        11.8563827533        8.7291414083        7.7612251940
  H        10.9093424060        9.3325730963        7.7360295563
  H        12.2596355396        8.6396793591        6.7256037336
  H        11.4753221853        7.6712192510        8.0301723948
  H        21.5085033664       11.5890719655        3.3305488741
  C        22.2273489379       10.8061258208        3.2361968713
  H        21.6221326142        9.8982607884        3.1460040269
  C        23.0819806756       10.7314142761        4.4980848042
  C        22.9924616227       10.9261373770        1.9735695964
  C        22.1948700069       10.9711164126        5.6949514827
  H        23.6543005337        9.7667435297        4.5560882234
  H        23.8756528485       11.4748033780        4.5284190405
  H        23.7341926255       10.0003751493        1.9762910946
  H        23.6666522944       11.7802082741        1.9763365154
  H        22.3622326121       11.1033249185        1.0463362084
  C        21.4618161219        9.7077126068        6.1207233565
  H        22.7256621354       11.2572035791        6.5870822169
  H        21.4606746179       11.7641334553        5.4864981244
  C        20.8705172409        9.8177410152        7.5252694130
  H        22.2504613409        8.9324904482        6.0111467606
  H        20.6559725791        9.4202618162        5.4047975684
  C        19.6367277868       10.6767894846        7.4504132849
  H        21.5996111441       10.1681937462        8.2579226052
  H        20.6460513105        8.8029700083        7.9176943043
  C        18.3672190343        9.9583426464        6.8218665941
  H        19.2059450078       11.0152059953        8.5082404630
  H        19.8471647848       11.4546566574        6.7718441576
  C        17.1966572036       10.8753187031        6.6395653606
  H        18.1274315353        9.1322636576        7.4779281940
  H        18.5315427632        9.4059010570        5.9712393226
  C        17.5179420657       12.2343914138        6.0277069873
  C        16.7457716931       11.5755048265        7.8729679846
  C        15.9508802152       10.1469095041        5.9597894327
  C        17.2180690581       13.2847300697        6.8665034586
  C        17.9881452412       12.6898194868        4.7639473660
  C        16.7222815378       12.9164533492        8.0490854711
  C        16.3075773687       10.8107586396        8.9693705338
  H        16.2249329567        9.6438057490        5.0270089445
  H        15.7986142315        9.2611290667        6.6356631296
  C        14.6173959153       11.0181001613        5.9285648652
  S        17.6193508796       14.8008527569        6.1183531882
  C        17.9117335109       14.0272414642        4.6456834697
  H        18.1480792245       12.0154481277        4.0234899388
  C        16.3321758638       13.4548617668        9.2591015082
  H        16.3338219969        9.7511561741        8.8667880819
  C        15.8824126748       11.3658815969       10.1666077250
  H        14.7387008880       12.1068423559        5.9911204268
  H        14.0670170207       10.8272619621        6.8518258395
  C        13.6916959894       10.5756689563        4.7927247139
  C        18.2058006508       14.8346432139        3.3849650823
  C        15.8927073994       12.7180892637       10.3096131567
  H        16.4294546969       14.5332212326        9.3010727592
  C        15.3896667177       10.9855712872       11.3782432178
  H        12.7058716230       10.9244309267        4.9296153599
  H        13.5686365710        9.4901933286        4.8368420900
  C        14.0859479157       11.0189963430        3.4028937818
  C        18.2265449481       16.2799400800        3.2207320232
  C        18.5299114349       14.0722059260        2.2066940456
  C        15.3692126249       13.4139787355       11.5277296541
  C        15.1401196854       12.0408840076       12.2067000558
  S        15.1538476583        9.4907112354       12.1947629526
  H        15.1116332890       11.2473184369        3.4525747065
  H        13.5885100470       12.0464271875        3.2649683786
  C        13.6472814818       10.1469062687        2.1993205924
  N        17.9747596227       17.2807924283        4.1900793781
  C        18.4793084764       16.9595261477        1.9990980063
  C        18.8228818172       14.6409661650        1.0313031438
  H        18.7315989688       13.0159296223        2.3411945998
  C        14.1015983768       14.1916346599       11.4585465901
  C        16.5564704717       14.2057895354       12.2780336542
  C        14.7768817818       11.6964720320       13.5672075207
  C        14.7358808833       10.3558043350       13.7195552713
  H        14.2876696867        9.2060316271        2.2512309665
  H        12.6331622890        9.8002470582        2.3614425859
  C        13.6066490798       10.6128415212        0.7325811887
  S        18.1989656530       18.7703493168        3.5307505049
  N        18.3743582466       18.3130658407        1.9691121011
  C        18.8352422625       16.1607948614        0.8321383521
  H        19.1890164625       14.0484743299        0.2680702406
  H        14.3948378875       15.1481428648       11.1314039496
  H        13.8986476240       14.5023030984       12.4435487224
  C        12.8720113158       13.4293948520       10.8358849136
  H        17.0425311816       14.8967926218       11.4979790387
  H        16.0200353217       14.7956717914       13.0965262034
  C        17.5937351811       13.3584480530       12.8810150909
  H        14.6181607209       12.4528842804       14.3132516407
  C        14.2884602281        9.6844227038       15.0503616066
  H        14.5479227256       10.2272321991        0.2580320681
  H        13.6537217772       11.6829568561        0.6669269431
  C        12.3318227030       10.1974889378       -0.0609250656
  C        19.0669472305       16.7273954609       -0.4288989533
  H        13.2516989692       12.8587329621        9.9487990601
  H        12.4627749612       12.7022363384       11.5940120230
  C        11.7864755616       14.3772200841       10.3832948993
  H        18.1323125818       12.8193666738       12.1409995720
  H        17.2092301025       12.7181942693       13.6871089846
  C        18.5905062834       14.2846412123       13.5633134323
  C        14.2135121762        8.2618528397       15.3026390653
  C        13.9026865069       10.5202318688       16.2101372561
  H        12.2295472776        9.0773116922        0.0505328148
  H        11.3713765410       10.6535079403        0.2152620464
  C        12.4199775791       10.5329754854       -1.5654927056
  H        18.8344078285       17.8222690066       -0.4449498402
  C        19.2935302826       16.1236562932       -1.6551875052
  H        12.2674075913       15.1376382789        9.8208262610
  H        11.1787368386       14.7055305347       11.2437233243
  C        10.7500171227       13.5622283330        9.6696226149
  H        19.0762551069       14.8839032838       12.8150624118
  H        18.2178497065       15.0013048262       14.2716794684
  C        19.6482241026       13.5381065423       14.3949992185
  N        14.4073462724        7.2198969909       14.3767732893
  C        13.9381580293        7.7498056829       16.5637643317
  C        13.6473756518        9.9868568313       17.4576866374
  H        13.8829276960       11.6104910480       16.1222552073
  H        13.4389474692       10.7898525950       -1.8399106604
  H        11.8050264008       11.3759853067       -1.9442323142
  H        12.1920001497        9.6253629240       -2.0731247598
  S        19.6596137226       14.5397759650       -2.0288896411
  C        19.5301319619       17.0669808645       -2.7694542975
  H        10.9734752016       13.2877015002        8.6366562226
  H        10.7909775073       12.5799315366       10.1421255292
  C         9.4208157565       14.2623147284        9.7265976503
  H        19.9992240931       12.7024866034       13.7796398689
  H        19.2067592165       13.2557377132       15.3496372422
  C        20.8453829329       14.4113637281       14.7148524255
  S        14.2375359764        5.7303995766       15.0170173433
  N        13.9535207480        6.3049071235       16.5352564881
  C        13.5416045569        8.5240811407       17.6927602310
  H        13.4791664388       10.7788085932       18.1596902243
  C        19.8229483485       15.1023287224       -3.7312297529
  N        19.8831114436       16.4251035618       -3.8577810328
  O        19.4030593169       18.2828906320       -2.6547256036
  H         9.2045510711       14.5711145692       10.7462903582
  H         9.6362455487       15.2211705032        9.1884247470
  C         8.3510296028       13.4150644537        9.1603728101
  H        21.5051771848       13.8593009256       15.3917675052
  H        21.3978634392       14.4277129509       13.8094630144
  C        20.6077251457       15.8024823158       15.1756321876
  C        13.2584486283        7.8137503016       18.8992612014
  S        20.3935840096       14.0230646490       -5.0151545200
  C        19.8872936961       17.0786881121       -5.1711108254
  H         8.7359371510       12.9975014006        8.2749423916
  H         8.2188193716       12.5633046548        9.9208981715
  C         6.9917043014       14.0826996085        8.9904886302
  H        19.9071512864       15.8968322176       15.9856295682
  H        20.2178598731       16.4207052894       14.3553442232
  C        21.9227258955       16.5608629925       15.6178729530
  H        13.0980986486        6.7730561642       18.7080837528
  C        12.7487760582        8.2156966242       20.0575296373
  H        20.7892880852       16.7585771063       -5.6837208500
  H        20.1330876620       18.1278168699       -5.1168819311
  C        18.5206941092       16.9901383546       -5.8725850610
  H         6.4542880581       13.7007707279        8.1888085168
  H         7.0913192796       15.0906585254        8.5881460277
  C         6.1005434447       14.1213168253       10.2527297871
  H        22.0693321790       16.1125130313       16.6115230617
  H        22.6656294549       16.3163367661       14.8900040775
  C        21.7976290223       18.0475544058       15.6807780454
  S        12.3406679510        9.8642094532       20.4736408827
  C        12.5898659974        7.2180966048       21.1107823892
  H        18.4264858207       16.1101168650       -6.4489856430
  H        18.2670140336       17.7852795767       -6.5447022920
  H        17.6772349733       16.9559264060       -5.1139566874
  H         6.7777229528       14.5531928123       11.0699318771
  H         5.2913463467       14.7633629746       10.1334278417
  H         5.9944415272       13.0929772831       10.5487353670
  H        20.7932746188       18.4124179019       15.7393654450
  H        22.3758766024       18.4198401095       16.5250958507
  H        22.2463254101       18.4536933983       14.7295495767
  C        11.8821876896        9.1960786867       21.9815612250
  N        11.9749697720        7.8156796415       22.1830762132
  O        13.0524276007        6.0628378279       20.9708260823
  S        11.3904557870       10.1648226365       23.2661124695
  C        11.9135501771        7.1584339804       23.5207388825
  H        11.5876835526        6.0956846021       23.4252210193
  H        11.0551172058        7.4432328909       24.0944362976
  C        13.2471185612        7.3014204554       24.2190807256
  H        13.9015130437        6.5225593436       23.9815921672
  H        13.1393201626        7.1885381361       25.2770051851
  H        13.7153385495        8.3015717244       24.0971034415
