352
 i =    28200, time =    28200.000, E =        24.6263007207
  H        12.0130023317        6.8482081990       32.4232381647
  C        11.6177650363        5.7988190206       32.5818323138
  H        12.4827855443        5.2817845923       32.3785146695
  C        10.5826562563        5.5163181931       31.5054030010
  C        11.1611270858        5.5963149898       33.9615499534
  C        11.0847474632        5.7988466005       30.0815146114
  H        10.4203610701        4.4495202665       31.6649616459
  H         9.6370152924        6.0220169429       31.7377117981
  H        10.5411072474        4.7450293185       34.0930881169
  H        12.1663671693        5.5359826977       34.5558042873
  H        10.6527379873        6.4653858188       34.3429267280
  C        10.0632040401        5.6219527831       28.9215298416
  H        11.8036369175        4.9631358794       29.9307356338
  H        11.5498445108        6.7831084412       30.0866943069
  C        10.7227773162        5.6612562322       27.5285024333
  H         9.5726519767        4.6866233072       29.0583220137
  H         9.3098170730        6.3674880668       29.0320865817
  C         9.8084143189        5.1388649894       26.3625145820
  H        11.7157124244        5.2576276438       27.5104512441
  H        10.8536175837        6.7315042142       27.2374503576
  C         8.5594481710        6.0964509390       26.1751305934
  H        10.3436329196        5.1030405131       25.4146856980
  H         9.5033804593        4.1335747910       26.5669665079
  C         7.4007484937        5.4021174175       25.4650547746
  H         8.1346602424        6.3021476335       27.1875912493
  H         8.8249213666        7.0677659087       25.8322330662
  C         6.9823987074        4.0223226535       26.1238574581
  C         7.5918506452        4.6476818810       24.1621366722
  C         6.1675542073        6.3210378253       25.4591510829
  C         7.0125903391        2.9969882371       25.2324967937
  C         6.5970542707        3.6816307805       27.4727479546
  C         7.4676584694        3.3532765116       23.9865422448
  C         8.0654639975        5.3143492605       23.0563308441
  H         6.4687566031        7.2402672399       24.9901601334
  H         5.8723309512        6.5297198697       26.4696779152
  C         4.9458160959        5.7775236931       24.7101018463
  S         6.5622289523        1.5493751671       26.0584061479
  C         6.3021558103        2.3473802963       27.5551361155
  H         6.4747913354        4.4866597181       28.1886979334
  C         7.7792644244        2.6740806081       22.8288882152
  H         8.1722640899        6.3607475101       23.0804679381
  C         8.4124121621        4.7187720680       21.8875275702
  H         5.2583387124        5.5725601487       23.7244335742
  H         4.7412622459        4.7912097076       25.1300288039
  C         3.7060293088        6.6226004363       24.7367500675
  C         5.7968944178        1.5293924871       28.7369309116
  C         8.3831185339        3.3758403567       21.7222487136
  H         7.6494033283        1.5749118783       22.7596721482
  C         8.9746760021        5.1162165116       20.6778275869
  H         3.0008842530        6.1224434994       24.1025046604
  H         3.9106661462        7.6162189051       24.2789241976
  C         3.0351582942        6.7847514655       26.1219113746
  C         5.8584888476        0.1097460025       28.9043818300
  C         5.2119267759        2.2266283908       29.8984273771
  C         8.7637172347        2.6363260355       20.5142485831
  C         9.1208403716        3.9981818909       19.8324569490
  S         9.2033389631        6.6362784666       19.8639214477
  H         2.2789070371        7.6387694272       26.0568875252
  H         3.7473864003        7.0235648079       26.9320435727
  C         2.2160471009        5.5831821577       26.5091480152
  N         6.1271565899       -0.7857937283       27.9024289806
  C         5.5424353290       -0.5404533998       30.0506750902
  C         5.0572374373        1.6096564567       31.0977287405
  H         5.1409151687        3.2647952574       29.8349542703
  C         7.6351177339        1.7978715198       19.8932068098
  C        10.0246497263        1.7692548031       20.7355745103
  C         9.5294722278        4.3843816302       18.5380453341
  C         9.6028816798        5.7342443644       18.3849845690
  H         1.4828609800        5.5707663720       25.7612412475
  H         2.7243184258        4.5139322751       26.5277735785
  C         1.4636552107        5.7042550212       27.8587505509
  S         6.1255720067       -2.3185865184       28.4885064055
  N         5.6943065537       -1.9481624324       30.0092983304
  C         5.0798715452        0.1289702857       31.2280536793
  H         4.8297120991        2.1173613729       31.9780594337
  H         7.1189741687        1.1309895094       20.6252877342
  H         7.9939485015        1.0978772580       19.1732074888
  C         6.4099883158        2.6800725775       19.4712703118
  H        10.2253962505        1.2277700788       19.7823144889
  H         9.9312189115        1.0684358789       21.4733626340
  C        11.2576740141        2.5844597175       21.0093655213
  H         9.7241894808        3.5970220701       17.8174511495
  C         9.9406253519        6.4645517284       17.0795815270
  H         0.8897582865        4.8442283553       27.8639355955
  H         0.9402092836        6.6179099317       27.8267233065
  C         2.2990138581        5.7312549067       29.1155773685
  C         4.9247797728       -0.6134455103       32.4528882968
  H         6.7688011234        3.3537801046       18.7180188440
  H         6.1191253310        3.3327834649       20.2698271459
  C         5.2358835366        1.9087583991       18.9996594109
  H        11.2431410637        3.0484861668       21.9803547280
  H        11.4580022554        3.3205147553       20.2195103935
  C        12.5017160904        1.7648662671       21.0277921249
  C        10.0210821941        7.8627023222       16.9024864873
  C        10.0603538065        5.6482601742       15.8263570921
  H         3.0558849988        4.9447402671       29.0068514020
  H         2.8841471298        6.5970859427       29.0842235619
  C         1.5237833868        5.6781734302       30.4515721635
  H         5.0096277094       -1.6473720898       32.3199633097
  C         4.6542497925       -0.1889072199       33.7456254031
  H         4.6290833442        1.4005997754       19.8067208976
  H         5.5133397612        1.0018470350       18.4216636045
  C         4.2003598433        2.6471773629       18.2269162495
  H        12.4859448363        1.1732356001       21.9356326813
  H        12.1947203264        1.0545200688       20.2041603814
  C        13.8667352279        2.3977854294       20.7577873865
  N         9.7746792142        8.8940012374       17.8311895786
  C        10.3397473120        8.4146930195       15.6656159028
  C        10.3691001738        6.1900053894       14.5901806077
  H         9.8913619721        4.5716807962       15.8919285067
  H         2.1147414480        5.1121372982       31.1657921540
  H         1.3718851903        6.6351708865       30.9855858387
  H         0.5181559368        5.2747600541       30.1303855883
  S         4.3727041500        1.4268587806       34.2456908144
  C         4.7010589260       -1.1530164017       34.8277512804
  H         4.0865723349        3.5237074054       18.8837815414
  H         4.6881841577        3.0006171795       17.3439020730
  C         2.8444111117        1.9657833127       17.9967165458
  H        13.6539330116        3.0799621005       19.9489218534
  H        14.5692432382        1.5557382565       20.4785516281
  C        14.3375077143        3.0237468988       22.0959295374
  S         9.9838461103       10.4445749395       17.1900213902
  N        10.2937367526        9.8356781326       15.6814615187
  C        10.5504916148        7.6756949189       14.4760540243
  H        10.5414851070        5.5018323019       13.7588560676
  C         4.2063040634        0.8242525932       35.8587522276
  N         4.2406258446       -0.5389938609       36.0116997394
  O         4.9443257527       -2.3345465082       34.6178427902
  H         2.2568340840        2.6706013665       17.5115666046
  H         2.3490144403        1.7664923262       18.8969674522
  C         2.9630283695        0.7665019347       17.0489899607
  H        15.0297347968        3.8344943011       21.9998563172
  H        13.4467267454        3.6089504684       22.4663339137
  C        14.8558558705        1.9337112475       23.0662334398
  C        10.9964432181        8.3964789975       13.2813210594
  S         3.5294970812        1.8033480343       37.1749579099
  C         4.1558831643       -1.2149517485       37.2466735835
  H         2.1217603356        1.0098389282       16.3951335662
  H         3.8366596149        0.6776089825       16.4384916972
  C         2.7808274508       -0.6103816952       17.6011420139
  H        14.5163262515        0.9397802092       22.7254285026
  H        14.3997668356        2.2037177810       24.0170080510
  C        16.3969758806        1.9562218503       23.2183999840
  H        10.9054022363        9.4544088095       13.3901116902
  C        11.5911539101        8.0695733754       12.1230032312
  H         3.3525667054       -0.7599182001       37.7430309424
  H         3.7992408643       -2.2952031888       37.1341950499
  C         5.5232135565       -1.0319141534       37.9779024720
  H         3.6169528918       -0.9292952142       18.2721223984
  H         2.9753041805       -1.3614042606       16.8845345502
  C         1.3623101334       -1.0330425768       18.1970630372
  H        16.6406536199        2.9517310450       23.5658955595
  H        16.6027636038        1.2966408846       24.0528647274
  C        17.2572288223        1.4152748327       22.1029396869
  S        12.0736778856        6.4890640104       11.5660894907
  C        11.8083929380        9.1366942779       11.0748496566
  H         5.9951621129       -2.0291914075       37.9721684989
  H         6.2225483311       -0.3999646726       37.4156939651
  H         5.3944623118       -0.7364343042       39.0286143442
  H         1.1088115078       -2.0694717753       18.1278393976
  H         0.5704453487       -0.3803312178       17.8107799432
  H         1.4269544273       -0.8015102559       19.2357252384
  H        16.7175292944        0.6834704290       21.4754544683
  H        18.1566096312        0.9471726764       22.5487864508
  H        17.4775050748        2.2848125773       21.5158845209
  C        12.4728878787        7.2557236850       10.0365745629
  N        12.4463629989        8.5889149117        9.9728841923
  O        11.4405652021       10.2692218066       11.1433254937
  S        12.9588560826        6.3368985510        8.6150889117
  C        12.6340812757        9.3849780117        8.7215636764
  H        12.7947573374       10.3921808518        8.9738367219
  H        13.5721936148        9.0108283481        8.3818325610
  C        11.5235935723        9.2606723574        7.7314963300
  H        11.4267480422        8.2291783001        7.3470473259
  H        10.6402249745        9.6068264180        8.2239861810
  H        11.7358909625        9.9991105067        6.9178855973
  H        20.7301244267       11.5831130063        3.4482787445
  C        21.2436119250       10.5857143036        3.4801515071
  H        20.4591343656        9.7733533857        3.6286143863
  C        22.2399470350       10.4602263387        4.5642464623
  C        21.8762314290       10.3372210897        2.1382500277
  C        21.5631172823       10.7548228618        5.8551067112
  H        22.8487649573        9.5078456406        4.6289094812
  H        22.9966267917       11.2448353713        4.5335968944
  H        22.5502912582       11.1394623913        1.8602472028
  H        21.1108476632       10.2524594703        1.4573786732
  H        22.3423167169        9.3758622802        2.1962618747
  C        21.0844878153        9.5829977363        6.8070363024
  H        22.1437204363       11.3649805047        6.5189931886
  H        20.6948265964       11.3519218924        5.5496689905
  C        20.2783876384        9.9955456043        8.0148376804
  H        21.9921171299        9.1022025587        7.1151910300
  H        20.5563747809        8.7388391837        6.3108870242
  C        19.0750832355       10.8748612923        7.7394777674
  H        20.9422252374       10.6057327664        8.5644057884
  H        20.0242261858        9.1728989864        8.6604305469
  C        17.8517907124       10.2396545469        7.0643250012
  H        18.7672348198       11.0542277901        8.7830197568
  H        19.3678919333       11.7527083722        7.1995275917
  C        16.6683747338       11.2012491543        6.8254658019
  H        17.4772827350        9.4051801548        7.5904852037
  H        18.2105648901        9.8196098316        6.1337691048
  C        16.9437042902       12.5140545430        6.1167317886
  C        16.3555061838       11.9070080386        8.0735010512
  C        15.4277617322       10.4058984020        6.2649655927
  C        16.8065858639       13.6046491309        6.9400531765
  C        17.4190934718       12.8880550058        4.8742809556
  C        16.4150611542       13.2268901183        8.1712561446
  C        15.9737388042       11.1798360800        9.1604619180
  H        15.6783430203        9.7981089591        5.4457337326
  H        15.1268769093        9.6548802633        7.0061034924
  C        14.2312632132       11.3414009549        5.9116461506
  S        17.2941566706       15.1075740100        6.1682649622
  C        17.5335460608       14.2324009820        4.7209737748
  H        17.6891280744       12.0299669028        4.2335839576
  C        15.9494343197       13.7785765481        9.3280252327
  H        15.8870491881       10.0877288359        9.0930094643
  C        15.5180333479       11.6849234635       10.3244367027
  H        14.6716633537       12.2914434824        5.7017773019
  H        13.6011368904       11.4589794069        6.8368153861
  C        13.3820819831       11.0032215190        4.6602939430
  C        18.0983084265       14.9544269900        3.4638413863
  C        15.4915934955       13.0302932469       10.3949441853
  H        15.8883697612       14.8591067753        9.4355694466
  C        15.1125403890       11.2334302171       11.5564504895
  H        12.5636957673       11.7617105254        4.5102315760
  H        12.9210095492       10.0774633737        4.8680489821
  C        14.2290384860       11.0171881937        3.3805455146
  C        18.1115074904       16.3932994070        3.2316423642
  C        18.6951325013       14.1281297163        2.2993222843
  C        15.1255570571       13.6994857306       11.7058693958
  C        14.9235341198       12.3373209032       12.4335926412
  S        14.8290507585        9.6947777045       12.3083387674
  H        15.1749381899       10.4759969508        3.5122238045
  H        14.4309279135       12.0009588448        3.0363593444
  C        13.5440218144       10.3114995056        2.2123294755
  N        17.6495117517       17.3437287000        4.1154170381
  C        18.3584244534       16.9879851350        1.9992494168
  C        19.0929892609       14.7808355915        1.1291991566
  H        18.7783057312       13.0815035619        2.3607369845
  C        13.7391834044       14.4702948192       11.7096026967
  C        16.1969099556       14.5315477263       12.4215544397
  C        14.5355641157       11.8412508935       13.7131744739
  C        14.4121031999       10.4613660419       13.8019156609
  H        13.6071168238        9.1875240277        2.2548161020
  H        12.4773034928       10.5426303710        2.2968462285
  C        14.0938712113       10.6708159093        0.8246716214
  S        17.6203160735       18.7915238185        3.4276256494
  N        18.2202758979       18.3984701372        1.9938072032
  C        18.8984526948       16.2640975658        0.9035987183
  H        19.5560838719       14.1724775953        0.3547472785
  H        13.8612726343       15.4415002943       11.3135074355
  H        13.6091467866       14.5970008281       12.7819745888
  C        12.5586986025       13.7751455993       11.1340994093
  H        16.4462034503       15.4246362525       11.8276214341
  H        15.8851613496       14.8793252859       13.3890363888
  C        17.4564855517       13.7260415757       12.5765271745
  H        14.2690907631       12.5777394867       14.4942279946
  C        13.9661095985        9.7224291196       15.0915999570
  H        15.0531642621       10.1630031205        0.7626852630
  H        14.1893294169       11.7648313645        0.6463250032
  C        13.3333606238       10.0203246748       -0.2968877700
  C        19.2312519489       16.9331705680       -0.3223082571
  H        12.8724170631       13.3732153558       10.1800620580
  H        12.4731724519       12.7935294275       11.6105980010
  C        11.1739055876       14.4826610442       11.1604982530
  H        17.6854801430       13.1571788045       11.6532611189
  H        17.4629692911       12.9939273691       13.4195334901
  C        18.6019494207       14.6118855571       13.1107957226
  C        13.8036228593        8.2670805281       15.2322957340
  C        13.6122099005       10.4292995531       16.3427892581
  H        14.0646989947        9.6192666837       -1.0236161539
  H        12.8502286434        9.0645515112       -0.0659740146
  C        12.4736669206       10.9999508651       -1.1041529357
  H        19.0165851684       17.9610917529       -0.3568688652
  C        19.4771490166       16.3534936450       -1.5999269466
  H        11.1336785267       15.1366182258       10.2774555063
  H        10.9916934879       15.0860078280       12.0289924895
  C        10.0964013765       13.3612090940       11.1379616893
  H        19.0803000745       14.9706848445       12.1939428100
  H        18.1774838982       15.4453517863       13.7157091352
  C        19.6048412503       13.7788168464       13.8145222291
  N        13.9270160616        7.3342264483       14.1760373468
  C        13.4780854949        7.6296805723       16.3956345360
  C        13.2341319319        9.7324427285       17.4902027701
  H        13.7081111335       11.5095583571       16.3649613121
  H        13.0619009975       11.4799258818       -1.8543946330
  H        12.0690174906       11.7798045615       -0.5543260519
  H        11.6592444916       10.5245981035       -1.6811390303
  S        19.8010080907       14.7396927140       -1.9983168672
  C        19.5086152722       17.3155101978       -2.7360347989
  H        10.1687603025       12.4765859113       10.5406938348
  H        10.1213548484       13.0373463978       12.1575201232
  C         8.7801117032       14.0612596561       10.8212391535
  H        19.8794711454       12.9351301163       13.2165166590
  H        19.1174053362       13.6106219596       14.7851144201
  C        20.8519424917       14.6291893551       14.2164977128
  S        14.0329304996        5.8396523441       14.8249000626
  N        13.4816964092        6.2167971508       16.2592244401
  C        13.1950654527        8.3204761451       17.5755604059
  H        13.0117252110       10.3285814320       18.3321194180
  C        19.8481659333       15.3088834181       -3.6805766505
  N        19.7462387691       16.6499553165       -3.8584476967
  O        19.4202184552       18.5502210263       -2.5729458677
  H         8.1582128224       13.9528939883       11.6988470802
  H         8.9341429926       15.1651594506       10.8161617029
  C         8.1849555792       13.4730753793        9.5160663397
  H        21.4677869094       14.0926084700       14.9137718885
  H        21.5017187022       14.8180921175       13.4383870563
  C        20.5233718884       15.9246149273       14.9674359921
  C        12.8709419505        7.5320972492       18.7619122712
  S        20.1287974475       14.3263660287       -5.0865536152
  C        19.6182351544       17.2502765813       -5.1427150447
  H         8.7468492286       13.7996376610        8.7135781658
  H         8.2988499308       12.4126166033        9.6553814879
  C         6.7894670905       13.9677060464        9.3732205711
  H        21.0931329556       15.8560647691       15.9556056881
  H        19.4870622806       15.9041529290       15.3471223116
  C        20.8220120356       17.1726803596       14.2192248630
  H        13.1853994044        6.5524453730       18.6762364738
  C        12.4114615161        7.8739056224       20.0123112910
  H        20.2028040566       16.7465513099       -5.9244323004
  H        19.8527446504       18.2566478074       -5.1723009947
  C        18.1254059356       17.2785654283       -5.5649999943
  H         6.3520526538       13.6238297056        8.3785397225
  H         6.7077588599       15.0939551505        9.4612601576
  C         5.8586922574       13.4331082107       10.4830297112
  H        20.1035275519       17.1857030546       13.3899931818
  H        20.6261192891       18.0441056409       14.8350812479
  C        22.3036316175       17.2456971193       13.5851943175
  S        11.8908449108        9.3855659893       20.4849786703
  C        12.4075606411        6.7825429094       21.0303785093
  H        17.6279012224       16.4745215101       -6.1066121004
  H        18.0939560253       18.1268029176       -6.1917189707
  H        17.4818003389       17.5489896031       -4.7246791067
  H         5.8231810692       14.1123125944       11.3608250691
  H         4.7852979774       13.3151762158       10.2486080793
  H         6.2838746695       12.4695351062       10.7490843970
  H        22.2682674105       16.8106169555       12.6149685624
  H        22.5450850950       18.3601637068       13.4224937182
  H        22.9612228902       16.7083650320       14.2828347066
  C        11.5880326126        8.6089241075       22.0625143207
  N        11.8553895176        7.3138790054       22.1768473900
  O        12.7232796212        5.6184158028       20.9023392358
  S        10.9133952700        9.3279431508       23.5151177606
  C        11.5236401975        6.5859365575       23.4135330145
  H        11.6000209559        5.4947750794       23.1236055224
  H        10.5532133259        6.6821981157       23.8314598423
  C        12.6115975730        6.7947342498       24.4348163446
  H        12.6806874819        5.8507326422       24.9542753069
  H        12.4717111613        7.5282339177       25.1510343084
  H        13.5685079996        6.8498377828       23.9141379218
