352
 i =    18200, time =    18200.000, E =        25.1964063972
  H        12.1568170266        7.1191074696       32.7024933103
  C        11.7473173391        6.0923717055       32.4487953488
  H        12.6314900169        5.6696693169       32.0600929676
  C        10.6796241574        6.1100823634       31.2809742206
  C        11.0400416976        5.5473159873       33.6703481365
  C        11.3034921791        6.0474763801       29.8333548579
  H        10.0583250890        5.2430396538       31.4296493488
  H         9.8916654598        6.8613679243       31.3624665801
  H        10.0609541006        6.0339331203       33.7975942840
  H        10.8851580758        4.5004872115       33.6707251081
  H        11.6674066083        5.8308693239       34.5197218076
  C        10.3277101447        6.6082503699       28.8114423661
  H        11.4665911926        4.9779734542       29.6224313372
  H        12.1765050404        6.6556180596       29.6793367429
  C        10.7084108967        6.1968733078       27.3894042937
  H         9.3006741704        6.3242273152       29.0649106221
  H        10.1880979780        7.6374819254       28.8071290606
  C         9.6017450598        5.4040909035       26.6581737142
  H        11.6937491930        5.6981296717       27.3253615311
  H        10.7605523829        7.1024307503       26.7719504794
  C         8.4250232640        6.2826469043       26.0391387433
  H        10.0542384707        4.7217521675       25.8796149072
  H         9.2534776919        4.8139292684       27.5042504040
  C         7.2996973166        5.5186304733       25.3174380565
  H         7.9183736784        6.6748362412       26.8602305582
  H         8.8626919572        7.0881156772       25.4926297762
  C         7.0568112111        4.1651863426       26.0180103057
  C         7.7290484731        4.6178118055       24.1498221688
  C         5.9373895212        6.3562031473       25.1681526553
  C         7.2492844348        2.9997427380       25.2872574317
  C         6.5639897670        3.8273889354       27.3144186376
  C         7.6573867060        3.2731210649       24.0766803436
  C         8.1319139920        5.2236432486       23.0176025766
  H         6.0537836245        7.0351394583       24.3106452347
  H         5.6374175725        6.9745232768       26.0780093102
  C         4.6808244350        5.6114053840       24.8592035093
  S         6.8994755383        1.5569474286       26.1237056585
  C         6.4026265237        2.4982051347       27.5139461636
  H         6.2604214659        4.5756243510       28.0334333965
  C         7.9000087387        2.5984452841       22.9179092778
  H         8.2940996590        6.2988794642       23.1449901156
  C         8.4563183590        4.5328882167       21.8543358171
  H         4.8967241114        5.1425126672       23.8752533153
  H         4.4833467521        4.6776352310       25.4420913255
  C         3.4560685746        6.4493155624       24.6165321272
  C         5.9141988130        1.8883891704       28.7363784618
  C         8.2723332349        3.1987175089       21.6896029927
  H         7.7480796369        1.5228049705       23.0039831543
  C         8.9298645830        4.9127255070       20.6370355021
  H         2.8489936651        5.8208706001       23.9896103871
  H         3.7473330496        7.3808998808       24.1745852695
  C         2.6696521592        6.6995396799       25.8653177980
  C         6.0817858740        0.5409820723       29.1079879649
  C         5.2746797319        2.7256568670       29.8371075671
  C         8.6625523850        2.4706273346       20.3874439770
  C         9.0309754137        3.8513923392       19.7276844851
  S         9.2251310553        6.3930521571       19.9326598116
  H         1.9636219225        7.4543276286       25.6959640782
  H         3.2952689746        7.1657556293       26.6333820113
  C         2.0541594966        5.5284073226       26.6891009733
  N         6.4897048066       -0.5026593587       28.2016088264
  C         5.7961182784        0.0783840891       30.4292671852
  C         4.9520178069        2.2773481721       31.1622325906
  H         5.1296511072        3.7630539687       29.5957909260
  C         7.4969370821        1.7220384854       19.7393909058
  C         9.8786836425        1.5659170160       20.5859651119
  C         9.5060323167        4.2551509067       18.4683297209
  C         9.6447870060        5.5843295180       18.4035205534
  H         1.2462378615        5.0633201445       26.0635832282
  H         2.8044552375        4.7444366060       26.7186118487
  C         1.4757621476        5.9911251017       28.0227729770
  S         6.3488889765       -1.9432429267       29.0300741920
  N         5.9119004689       -1.3306340753       30.5087692577
  C         5.2320495774        0.8884816752       31.4638859405
  H         4.4015643038        2.9240475475       31.7649768761
  H         7.1515684514        0.9179645315       20.4323646691
  H         7.8341809070        1.3183456622       18.7659818811
  C         6.2791060236        2.5829818689       19.3922622442
  H        10.1651312634        1.0986977395       19.5660544939
  H         9.4410166583        0.7305994591       21.1499553293
  C        11.1372373202        2.2367391074       21.1443546109
  H         9.5497802580        3.4832862139       17.6915319091
  C         9.8925035027        6.4425107729       17.2495958247
  H         0.6704122859        5.2530995500       28.4350430544
  H         1.0888309911        6.9946051474       27.9671034575
  C         2.5421776858        5.9080405421       29.1806004916
  C         5.0028118914        0.2695287256       32.6658382974
  H         6.6026764605        3.4768029056       18.8772776867
  H         5.8620749138        2.9897765173       20.3125923447
  C         5.2017875715        1.7762923557       18.6606118016
  H        11.0000993200        2.6363840150       22.1721465992
  H        11.2279454836        3.1782282977       20.5321864709
  C        12.5153643327        1.5328323198       20.9612424896
  C         9.9679165190        7.8854656686       17.1436767944
  C        10.1622168328        5.7413712818       15.9918788678
  H         3.2324492260        5.1298210107       28.8645906861
  H         3.0909775333        6.8927260670       29.3115729913
  C         1.8399175288        5.8560759395       30.5619441962
  H         5.0796512281       -0.7321568259       32.6612188054
  C         4.6841392971        0.7416323219       33.9143524362
  H         4.7315466553        1.0365047438       19.3014718103
  H         5.6015227354        1.1639365556       17.7969493200
  C         4.1754292493        2.7028648255       18.0171766498
  H        12.6164298250        0.8433353164       21.7843036927
  H        12.4429100620        0.8111784682       20.1471867333
  C        13.7400818998        2.4559239715       20.9763016186
  N         9.8328700387        8.8102167171       18.1858592743
  C        10.3926558572        8.5964937874       15.9989929535
  C        10.5032490531        6.3846559591       14.8522971088
  H        10.1504285102        4.7149980870       15.9761645625
  H         0.9476633825        6.4639267962       30.6340252993
  H         1.4834117262        4.8124276154       30.8251407503
  H         2.5095630539        6.3446199696       31.2579358326
  S         4.2727974583        2.3076814140       34.3789031570
  C         4.7223677431       -0.2287070270       35.0531654621
  H         4.2355043603        3.6244891928       18.5344285118
  H         4.3448283757        2.7716350678       16.9129627406
  C         2.7428335942        2.2865218712       18.1080494291
  H        13.5999751904        3.2571838835       20.3138060779
  H        14.5575953500        1.8822716417       20.5199289789
  C        14.1591347944        3.0726351943       22.3166614465
  S        10.0263140938       10.3152899164       17.6326084649
  N        10.4361380832        9.9982972104       16.1022732607
  C        10.5941428180        7.9321803970       14.7978513596
  H        10.5471040355        5.7989686225       13.9276438490
  C         4.0377606623        1.5925754628       36.0437163591
  N         4.2402351916        0.2801027025       36.1650921670
  O         4.9819881628       -1.4102564134       34.9767732680
  H         2.1412118673        2.9801353077       17.5512959782
  H         2.3572108594        2.3604828565       19.0756539678
  C         2.5992859827        0.8735085009       17.5096127229
  H        14.6303125744        4.0660264450       22.0941550221
  H        13.3725221242        3.1497465862       23.0585873992
  C        15.1888973447        2.1475631477       23.0009844546
  C        10.9025283592        8.6956265219       13.6572833465
  S         3.8163785651        2.4567981529       37.5989323167
  C         4.1831621067       -0.5682144789       37.3498514844
  H         1.8731691333        0.8227498956       16.7217606691
  H         3.5047786023        0.6007587055       16.9687029544
  C         2.2888179425       -0.2509403356       18.4991634296
  H        15.3273136464        1.4005095487       22.2691389504
  H        14.6604566295        1.5691190838       23.7236768168
  C        16.5900951261        2.7066440248       23.3796477854
  H        10.9121333414        9.8201827118       13.7388318712
  C        11.4105434219        8.2480246764       12.4102149878
  H         3.5043150248       -0.1670495275       38.0757131545
  H         3.6052954746       -1.4963448308       37.1083327207
  C         5.5900222027       -0.7329537002       37.9458362851
  H         1.5902390280       -0.0271665825       19.3005253697
  H         3.1809683176       -0.4554226988       18.9427973342
  C         1.7798738933       -1.5231902974       17.7335708457
  H        16.5879836692        3.7130780581       23.8130340820
  H        17.0236451444        1.9796954538       24.0535488445
  C        17.4379215951        2.8013996111       22.1266021994
  S        11.8187535830        6.6670628392       11.9893975100
  C        11.6179103988        9.2491113851       11.4065313430
  H         5.8209687425       -1.4991022757       38.6910452394
  H         6.3091022763       -1.0109446189       37.1570628073
  H         5.8276007157        0.2802708819       38.2894973339
  H         1.3504702451       -2.3297059655       18.3863708715
  H         2.4569138066       -2.0287708959       17.1240735466
  H         1.0039903785       -1.2982551523       16.9794399906
  H        18.4759926562        2.4992266347       22.3821936057
  H        17.4946804857        3.7709144236       21.6667694813
  H        17.1154521512        2.0631576877       21.4164443818
  C        12.3826606415        7.3314912645       10.4979863143
  N        12.1592967084        8.6691674977       10.3120353731
  O        11.2102947142       10.3972123759       11.4230132901
  S        13.1194503444        6.3996286562        9.1920691204
  C        12.4420831585        9.4024259866        9.1270179343
  H        12.7244545268       10.3890776037        9.4576171401
  H        13.2696214044        8.9678887883        8.5529952850
  C        11.2258000508        9.4950679977        8.2321851925
  H        11.3082323320       10.3633326027        7.5198642432
  H        11.2263081041        8.6164351213        7.6240101014
  H        10.3524196226        9.6100605422        8.8318214526
  H        21.0448054278       10.9725294283        3.3376158662
  C        21.7275957487       10.0925206151        3.2138462876
  H        21.0919608452        9.2371788303        3.0321396039
  C        22.5575395400       10.0525154348        4.4309873235
  C        22.6032378332       10.1571315081        1.9819879143
  C        21.7480821910       10.5291293485        5.7054992041
  H        22.9025201754        9.0716653045        4.7087313977
  H        23.4575336795       10.6635726108        4.3286249400
  H        22.9947890227        9.2301697824        1.7640343385
  H        23.3632120786       10.9274954691        2.0862073125
  H        21.9245124100       10.3689730364        1.2257022511
  C        21.2062479882        9.2958457699        6.4666992497
  H        22.3843312401       11.0428940705        6.3467022652
  H        20.9201640288       11.2182689840        5.4409929151
  C        20.4434817613        9.5468573145        7.7344705222
  H        22.0561625815        8.6961262568        6.8640515097
  H        20.6348941608        8.7580190287        5.7214218861
  C        19.1396896435       10.3943127371        7.4506107665
  H        21.0074785613       10.0996825275        8.4886539217
  H        20.1057508373        8.6217841314        8.3023809110
  C        17.9397875794        9.5958619420        6.8990661840
  H        18.8819073682       10.8064622305        8.4334433176
  H        19.4682964236       11.3379655907        6.9251256461
  C        16.7019790638       10.4856224642        6.7190781893
  H        17.6112162012        8.7235867339        7.4416013080
  H        18.3030721220        9.2796068528        5.9313790089
  C        17.0742661427       11.7775162925        6.0203596097
  C        16.3811235359       11.2163111298        8.0397865432
  C        15.4575402459        9.7912995821        6.0621602010
  C        16.8088497689       12.8546706939        6.8487021986
  C        17.6798476625       12.0545349314        4.8081972348
  C        16.4703965175       12.5674251249        8.1322183368
  C        16.1490211945       10.6197589766        9.2132826092
  H        15.7068341120        9.3722807234        5.0959265712
  H        15.1463983468        9.1011817746        6.7923274479
  C        14.2855077784       10.7184854342        5.7340850158
  S        17.3790949385       14.3279629008        6.1253636880
  C        17.7521775396       13.4105139636        4.6662614993
  H        18.1062745273       11.3051626115        4.1743117881
  C        16.0950960272       13.2474317325        9.2328380816
  H        16.1803747370        9.5393540551        9.2412600420
  C        15.7890186463       11.2862297283       10.3541949403
  H        14.7010362104       11.6637469430        5.3165822018
  H        13.7896142582       10.9774539009        6.7503586939
  C        13.1730503934        9.9421017402        4.9631102148
  C        18.1348110051       14.1043913562        3.4040123923
  C        15.7084817035       12.6391361697       10.4416385332
  H        15.9539869908       14.3391817284        9.1672258249
  C        15.3700850703       10.9104550782       11.5691559919
  H        12.1931054420       10.4204458754        5.1377423219
  H        13.0295143334        8.8165367407        5.1134763146
  C        13.5728801224       10.2269977852        3.6083777550
  C        18.2510060144       15.4839486571        3.2249122925
  C        18.5450305150       13.3014753318        2.2001696628
  C        15.2768675221       13.3708471001       11.6758952221
  C        15.0300287663       12.0073075174       12.3181383584
  S        15.0074430923        9.4221520189       12.4442744554
  H        14.6436120293       10.0320675903        3.3332636932
  H        13.4476199324       11.2887524153        3.4550070487
  C        12.7559575434        9.4837099252        2.4503900502
  N        17.8711146998       16.5573574973        4.0917578566
  C        18.6236418254       16.0035042823        1.9820665975
  C        18.9010547055       13.8671210851        0.9560716608
  H        18.5109020161       12.2513084293        2.2477826503
  C        13.9717483432       14.1961027276       11.5172530895
  C        16.4929689571       14.0747579061       12.2888802771
  C        14.5317740612       11.6243164327       13.5599371369
  C        14.4569078500       10.3097570234       13.7799485289
  H        13.0388793183        8.4711807369        2.4499797945
  H        11.6613156262        9.6223267431        2.6214377788
  C        12.8577270019       10.0711326753        1.0463263261
  S        18.0450085168       17.9707504075        3.3515311378
  N        18.6646668533       17.4062039975        1.9906206036
  C        18.9053795129       15.3393341532        0.8191821429
  H        18.9868644779       13.2278121660        0.1468002392
  H        14.0604809152       14.9382602579       10.8054466705
  H        13.7044624904       14.7799406815       12.3543228962
  C        12.8409100003       13.3927790260       11.0338753551
  H        16.7874331436       14.8813086924       11.6055262245
  H        16.0943259423       14.7021904706       13.0599915939
  C        17.7678310773       13.3784559952       12.6861488058
  H        14.0684207642       12.4000957075       14.2332330668
  C        14.1700457653        9.6168669881       15.1099035323
  H        13.9335277549       10.3068136667        0.8701707986
  H        12.1952693812       10.8621210271        0.8147795465
  C        12.6274581627        9.0820346052       -0.0773800032
  C        19.1697299405       16.0290713210       -0.4107166571
  H        13.1096486274       12.7832269986       10.1789101659
  H        12.3971387699       12.6998437167       11.7988795692
  C        11.6768610698       14.4065997842       10.6467345722
  H        18.1089086502       12.7377006977       11.8878737679
  H        17.5524906361       12.5883792492       13.4579088261
  C        18.8285023219       14.4454743687       13.1475177261
  C        14.0829634653        8.2555715126       15.2384444777
  C        13.8156658295       10.3793199228       16.3266661598
  H        13.3813469821        8.2960918248       -0.1102749769
  H        11.6967675703        8.4820868900       -0.0776752634
  C        12.9110603359        9.8789053382       -1.3436304829
  H        19.1006992269       17.1238745009       -0.3346259717
  C        19.3638258434       15.6048444064       -1.7164633424
  H        11.8463326829       15.1713366935        9.8588757969
  H        11.4754773952       14.9638054973       11.5828027084
  C        10.5347094857       13.5327056457       10.1360827325
  H        18.7113553558       15.4351641329       12.6077603508
  H        18.3482336570       14.6386432079       14.1419457524
  C        20.2973948980       13.9263917454       13.1056596227
  N        14.3893825013        7.2886432420       14.2932191430
  C        13.6673243126        7.6423206144       16.4429204836
  C        13.5852393406        9.7616875577       17.5832682320
  H        13.9027983707       11.4069915575       16.2727335546
  H        13.5832186752       10.6874485725       -1.0839896285
  H        11.9913896699       10.2626515136       -1.8243504812
  H        13.3551079213        9.2880730320       -2.0937525182
  S        19.7077812950       14.0354027809       -2.2951106408
  C        19.3816432338       16.6353444679       -2.7257837853
  H        10.8353335789       12.9449014712        9.2332921945
  H        10.2717211821       12.8807592049       10.9437988041
  C         9.1826015399       14.1854471032        9.8119808747
  H        20.7449629635       13.9016135671       12.1511826666
  H        20.2790663060       12.9123294237       13.4937325929
  C        21.2328611676       14.6059354295       14.1668875574
  S        14.0569306680        5.8365368541       14.7881120691
  N        13.5793414443        6.3061323995       16.2999853767
  C        13.4236641385        8.3095896730       17.6736074260
  H        13.5973349580       10.3878400811       18.5144330805
  C        19.8332844380       14.7015519371       -3.8123340866
  N        19.7035206245       16.0259364970       -3.9045365983
  O        18.9692966961       17.7973768513       -2.5947184599
  H         8.8821545712       14.7133290969       10.6876634482
  H         9.0954016185       14.9280118566        9.0370628372
  C         8.1516657803       13.1462591433        9.5137862802
  H        20.8080409537       14.4196506712       15.1068109348
  H        22.1464775626       14.0154689279       14.2807727377
  C        21.5144274463       16.0253578407       13.7236996530
  C        13.1092655955        7.4911958390       18.7703088527
  S        20.3164667768       13.8758609524       -5.3070508802
  C        19.6138211662       16.7216082641       -5.1812787499
  H         8.4064955832       12.7093717149        8.6202983459
  H         8.0789117600       12.4496051251       10.2699004648
  C         6.7061638884       13.6070002987        9.3800523541
  H        20.5626722206       16.4694801344       13.3990345446
  H        22.0754697643       16.0154636309       12.7798350439
  C        22.2204596969       16.9305896984       14.7029062512
  H        13.2697897654        6.4612885813       18.6861293889
  C        12.5591473650        7.7900756019       19.9828565997
  H        20.3909093067       16.5763710360       -5.8976659989
  H        19.8639827180       17.7075564670       -4.7815973678
  C        18.2209165625       16.5584107312       -5.7638981352
  H         6.0875268321       12.7268271890        9.4735928053
  H         6.4111735267       14.1210446423        8.3753236037
  C         6.1880823436       14.4263778646       10.5098910079
  H        23.2809832031       16.6785450692       14.7804087940
  H        22.2804729681       17.9487196964       14.2169205997
  C        21.6570928101       17.1320519634       16.1434181668
  S        12.0468132005        9.3335163191       20.6167948811
  C        12.4690431027        6.6216001039       20.8880351147
  H        17.9175189503       15.5080743879       -5.8543384370
  H        18.2250148135       16.9179713663       -6.8294393696
  H        17.3566225542       17.0227708732       -5.1883627836
  H         6.4014356460       13.9676866479       11.5117650729
  H         6.6345107784       15.4810890768       10.5417885353
  H         5.0589171124       14.4430031280       10.5610787364
  H        22.4714749217       17.2775412176       16.8418173362
  H        21.1131106432       18.0796877491       16.2184601793
  H        20.8935594806       16.4377348073       16.4677493148
  C        11.6239511608        8.4632810128       22.0378183484
  N        11.8421585590        7.0866564494       21.9990071166
  O        12.8098440081        5.4765225013       20.6528867484
  S        11.0346270508        9.1550872561       23.5263447505
  C        11.5855892996        6.1934584156       23.2111793355
  H        11.5960074871        5.1323528044       23.0271080585
  H        10.5424218479        6.5017606056       23.6066931329
  C        12.6974388291        6.4978761321       24.2746619880
  H        13.6024986148        6.9158271051       23.7954144848
  H        13.0318128958        5.6602972063       24.8235209777
  H        12.2155756134        7.1672273788       25.0633039074
