352
 i =    92600, time =    92600.000, E =        24.8495295408
  H        10.4269522123        7.0296853381       31.5495587067
  C        11.2501008105        6.3836085282       31.8583289943
  H        11.8109114493        6.9699221912       32.6055387358
  C        12.0342901664        5.9099270483       30.6499439391
  C        10.7826966494        5.2819095711       32.7788995513
  C        11.2887165403        5.0934382208       29.5432614938
  H        12.4016094131        6.8479878529       30.2958659912
  H        12.8363023538        5.3079214460       30.9246198227
  H        11.5282986961        4.8970948239       33.4846177550
  H         9.9148374140        5.5864209010       33.3998299901
  H        10.3776631958        4.4485253539       32.1139043553
  C        10.3733858435        6.0290893581       28.7024408710
  H        10.7382666413        4.2959759327       30.0206168195
  H        12.0631092819        4.6209221730       28.8732126572
  C        10.6221692440        5.9803921027       27.1929974154
  H         9.3548863720        5.8467562342       28.9580291592
  H        10.6154969791        7.0578393971       29.0307901294
  C         9.6603541879        5.0043685821       26.5378988214
  H        11.6250531352        5.5885155601       26.8421995152
  H        10.6019775816        7.0051178107       26.8382929661
  C         8.3629433626        5.7574882237       26.1331728298
  H        10.1077082587        4.6033316338       25.5427112460
  H         9.4822396897        4.1111068675       27.1792198010
  C         7.2872686917        4.8598756303       25.4555391579
  H         7.8126820488        6.1951420341       26.9710174298
  H         8.6694642631        6.6456982399       25.5315708438
  C         7.1495297678        3.5179904181       26.2264157488
  C         7.7061511604        4.1850071098       24.2842688982
  C         6.0029338551        5.6912534363       25.1649097849
  C         7.2253441185        2.4249836021       25.3974023488
  C         6.8386307694        3.1595069833       27.5715201775
  C         7.7372331973        2.8329593491       24.1991754006
  C         8.2089256940        4.8498439188       23.1672538239
  H         5.4528176860        5.1451419278       24.3590698890
  H         6.2027195352        6.6185486203       24.6924526485
  C         5.0625336693        5.8547405081       26.3688638701
  S         6.8455984629        0.9833688209       26.1555875114
  C         6.7128741630        1.7964699481       27.6727598481
  H         6.6098816656        3.8812093100       28.3836325858
  C         8.2676708492        2.2638785066       23.0976182079
  H         8.2356151214        5.9202855802       23.2199548357
  C         8.7285989317        4.2723516074       22.0698707155
  H         5.1882486685        5.0791197347       27.1014677339
  H         5.3178144620        6.8189824978       26.7875063005
  C         3.6686133757        5.7485993225       25.8909148616
  C         6.2394171616        1.1314779890       28.8845928291
  C         8.7903092921        2.9152098013       21.9446717128
  H         8.2926424477        1.1715057542       23.1164977234
  C         9.1741975161        4.6534564765       20.8553995956
  H         3.4027991678        4.7703862668       25.4768029039
  H         3.4269138828        6.5087014136       25.0937042947
  C         2.6289522115        6.0572873481       27.0038223701
  C         6.1513355056       -0.2514991719       29.1113699639
  C         5.7033541069        1.9275643211       29.9574102028
  C         9.3002039063        2.2540612009       20.6793336634
  C         9.4251233245        3.5987698814       20.0096820184
  S         9.2888888523        6.1421110931       20.1057766496
  H         1.6817816773        6.3440225153       26.5278924675
  H         2.8830921644        7.0134182202       27.5473726522
  C         2.3576060572        4.6993431505       27.7803728747
  N         6.6158197705       -1.2504263848       28.2869580601
  C         5.8412352074       -0.8018551331       30.3251021895
  C         5.3148843419        1.3550507041       31.1812732286
  H         5.6823626825        3.0266388972       29.9102736458
  C         8.1417038109        1.4287977694       20.0077532065
  C        10.6011968396        1.5046698327       20.8236216479
  C         9.7168717095        4.0114206048       18.7154022326
  C         9.6867018685        5.3521033788       18.5993430230
  H         2.0158812991        3.9187600632       27.0500630398
  H         3.2790907712        4.2041395277       28.1382456074
  C         1.3991077871        4.7390341701       28.9849473170
  S         6.4531608815       -2.7445171306       28.9307002825
  N         6.1057372483       -2.2043993511       30.3745488941
  C         5.3614522849       -0.0029422746       31.4052987735
  H         5.0087556046        2.0144300306       31.9360515611
  H         8.0670953323        0.4675504192       20.6273800101
  H         8.4908279010        1.1355121715       18.9915619499
  C         6.7885723915        2.1138553657       19.9643253896
  H        10.8587626475        0.9146675548       19.8965290799
  H        10.6129436048        0.8226087493       21.6523501793
  C        11.7599045972        2.3317524727       21.2512587657
  H         9.8572902180        3.2387603712       17.9036609568
  C         9.9770876849        6.1837137524       17.3652958664
  H         1.0203813785        3.7261186395       29.2048489100
  H         0.5240429277        5.3403707417       28.7762190721
  C         2.0676554703        5.5190996544       30.1612461501
  C         5.1783290249       -0.7008899222       32.6796642055
  H         6.8678910268        3.1489144860       19.7703552814
  H         6.3979151451        2.1617776266       21.0232067518
  C         5.8490418625        1.4280134951       19.0237941194
  H        11.6061021481        3.0290101349       22.0810206395
  H        12.1063575200        2.8333865591       20.3424482694
  C        12.9547721509        1.4381166789       21.6867797889
  C        10.1047217654        7.5705677013       17.3178089785
  C        10.1151037945        5.4819625529       16.0679461747
  H         2.1159879165        6.6485188826       29.9659513215
  H         1.4181127053        5.4812144269       31.0016764318
  C         3.4849145103        5.0707075646       30.5617752664
  H         5.5840561995       -1.6404970592       32.6154387367
  C         4.8450302579       -0.2753439741       33.9465789795
  H         5.9628993129        0.3954151352       19.1848319570
  H         6.0305391817        1.6432101984       17.9512588456
  C         4.4440914631        1.9417013544       19.2623557580
  H        12.7848066658        0.6980339238       22.4658793371
  H        13.2938011449        0.8868977328       20.8920617323
  C        14.0521446599        2.3578431277       22.1539370883
  N         9.8024036046        8.4574897710       18.3513200855
  C        10.4019999961        8.2578978832       16.1419533197
  C        10.5404955674        6.1365948283       14.9308447834
  H         9.9149650277        4.4351802993       16.0666050757
  H         3.8183484389        5.5158428885       31.4926560154
  H         3.4771489481        4.0048121509       30.7794235469
  H         4.1862910648        5.3126933627       29.8320292807
  S         4.5698820981        1.3583030663       34.4949959101
  C         4.9279065699       -1.3775895202       34.9427070474
  H         4.5532833078        2.4843895050       20.2230030150
  H         4.2229348286        2.6636380354       18.5106315122
  C         3.4131866610        0.8038531691       19.3588603018
  H        13.6625388671        3.0605782930       22.9733620330
  H        14.1732181309        2.9589984029       21.2562012311
  C        15.3205846515        1.6744825910       22.5381014214
  S        10.0964312913        9.9613019486       17.8617127819
  N        10.4072669459        9.6048666459       16.3058339075
  C        10.7288280437        7.5870735114       14.9456102624
  H        10.6367609099        5.6549659094       13.9995145102
  C         4.5292186305        0.5740088570       36.0416976657
  N         4.6597713693       -0.7618048447       36.0495205074
  O         5.1578042736       -2.5787360124       34.7607527749
  H         2.5250699325        1.3327580534       19.6233959862
  H         3.8032220606        0.1982064568       20.1416941030
  C         3.0996160284        0.0166930120       18.0888049800
  H        14.9847059433        0.9343868045       23.2662046047
  H        15.9159992652        1.1284518241       21.8197317408
  C        16.1450748862        2.5761797219       23.3544495667
  C        11.0982140597        8.4055551381       13.8282452119
  S         4.1348809260        1.3224969169       37.5841853757
  C         4.5791682307       -1.4662273491       37.2605095960
  H         3.0042758611        0.7335645695       17.2062935399
  H         3.9956499425       -0.5437533525       17.7463567732
  C         1.8509473165       -0.8262785459       18.3199859504
  H        15.5596870603        3.2475107230       23.9787870530
  H        16.4299114543        3.3808120515       22.6638657378
  C        17.2221702590        1.8089951571       24.1308142765
  H        11.0222960548        9.4652443303       13.8952226470
  C        11.5638995152        8.1315754900       12.5939180165
  H         3.7860225909       -1.1099949892       37.9653883422
  H         4.2397770017       -2.5010310688       37.1578910983
  C         5.9738226708       -1.5796429239       38.0460862226
  H         0.8943661282       -0.2595051771       18.3108104728
  H         1.8707040116       -1.3597011764       19.2424164369
  C         1.6097811641       -1.8328044009       17.2219852940
  H        17.4463720277        2.3339751374       25.0480643970
  H        16.9219911407        0.7808070583       24.3660645035
  C        18.4233985767        1.4877947945       23.3519039057
  S        11.9507534805        6.6029451192       11.9093768395
  C        11.7444437889        9.2408413501       11.6169360073
  H         6.5230573548       -2.4350104252       37.5788701763
  H         6.5588364600       -0.6712040677       37.7319307651
  H         5.8972034159       -1.7772595625       39.1004369577
  H         2.0699373292       -2.8156751324       17.3983335091
  H         1.9803367764       -1.5184590653       16.2252390988
  H         0.5915703512       -2.1274417912       17.0708782188
  H        19.0317990446        0.7824719221       23.8778021581
  H        18.9916370307        2.4244417547       23.2269578444
  H        18.1407510966        1.0941809653       22.4125115178
  C        12.3839500341        7.4470452519       10.4407988984
  N        12.2221861557        8.8167289088       10.4586622450
  O        11.3237829033       10.3972354734       11.8845578821
  S        13.1029605344        6.6286626458        9.0460419339
  C        12.4314061067        9.6395583049        9.2886629280
  H        12.6351310423       10.6971725282        9.6060715156
  H        13.2199266215        9.2884811893        8.6456265101
  C        11.1910934916        9.5813863245        8.3629073017
  H        10.4767527992       10.4329437023        8.3582329706
  H        11.6343651415        9.5846511650        7.3473663559
  H        10.6996068111        8.6434572527        8.6311048940
  H        21.8473256054       11.5693710930        3.6578260090
  C        22.0361808068       10.5455673756        3.6101687611
  H        21.1081658573       10.0535288347        3.7495742289
  C        22.9576448152       10.1553813098        4.8320205739
  C        22.6646735055       10.1477546858        2.2490492098
  C        22.1827319276       10.0892575783        6.0987596198
  H        23.4553780420        9.2238641936        4.7134736050
  H        23.7708410868       10.9138504924        4.8750104428
  H        22.8381825424        9.0653421382        2.2587130848
  H        23.6357606836       10.6243436003        2.1024632742
  H        21.9521146577       10.4079034535        1.3604803524
  C        21.6312153417        8.7105296025        6.4223176255
  H        22.7814155222       10.3048039153        6.9504247533
  H        21.3717325598       10.8154657143        6.0183948642
  C        20.3114285679        8.7294823804        7.2313833515
  H        22.2973169956        8.2281673439        7.0955124194
  H        21.6660563666        8.1465221146        5.5008028622
  C        19.0515890312        9.1798577509        6.5222873815
  H        20.4380598784        9.4142825523        8.0532877970
  H        20.1946923062        7.7337480943        7.7200158251
  C        18.0494989650        9.6068081976        7.5322911996
  H        19.2161197537        9.9669054541        5.8612153440
  H        18.5838895060        8.3832106098        5.9180976863
  C        16.8314269087       10.4749421126        7.0343997690
  H        18.5521595453       10.2727757634        8.2553392140
  H        17.6703289047        8.7230092224        8.0675792803
  C        17.2220342882       11.8108980203        6.4817978506
  C        16.2975482164       11.2445159574        8.2734375523
  C        15.6681779211        9.7763060186        6.2101525241
  C        17.0380369185       12.9665062867        7.2479907249
  C        17.6622671581       12.2478739572        5.1976635369
  C        16.4318190602       12.5572671320        8.4034225268
  C        15.8612671758       10.5699902541        9.4008244871
  H        16.0716413729        9.4509587211        5.2782317355
  H        15.4344943137        8.8875654135        6.7683732118
  C        14.4114017728       10.7432373859        5.9550439828
  S        17.3679166821       14.5286133137        6.5072400114
  C        17.7421245378       13.6160933118        5.0488159644
  H        17.8858186676       11.4928513226        4.4388265495
  C        16.0897288226       13.1307710365        9.5966030371
  H        15.7546449948        9.4915599189        9.4323631606
  C        15.5828172135       11.1875145551       10.5699874921
  H        14.7262108111       11.4841012879        5.2421019296
  H        14.0320318501       11.2070768583        6.8797874165
  C        13.2737776435       10.0253211103        5.2810418623
  C        18.2529171838       14.3665034005        3.9002660383
  C        15.5914304146       12.4848608661       10.7335563097
  H        16.3348095811       14.1089974263        9.8566491435
  C        15.2173024729       10.7924665773       11.8132891694
  H        12.3547582405       10.6439557809        5.2080330718
  H        13.0322222836        9.2135264173        5.9825558350
  C        13.5698238241        9.4207626041        3.9407531127
  C        18.2181975401       15.7967394738        3.7631943268
  C        18.8936068357       13.5973763407        2.7654860488
  C        15.2447812040       13.2130991670       11.9699467711
  C        14.9213843699       11.8786179617       12.6337033304
  S        14.9925024717        9.2636988367       12.6784785121
  H        13.6207489768        8.3201290685        4.0308656911
  H        14.6408535520        9.5956177209        3.5973118330
  C        12.5708950451        9.7779939635        2.8679998761
  N        17.9221673948       16.7531179194        4.7466151920
  C        18.4754498669       16.3865844831        2.4850679969
  C        19.1489408620       14.1975021766        1.5929371472
  H        19.0831975176       12.5474406981        2.7899996224
  C        14.0331377897       14.1134299306       12.0140068506
  C        16.4021609956       14.0429075123       12.5922067448
  C        14.3867295715       11.4622209306       13.8856260358
  C        14.3802208182       10.1041098396       14.1048291392
  H        11.7822474413        9.0459594646        2.7512233391
  H        11.9652845762       10.6784181335        3.0510860693
  C        13.3626338613        9.9051422401        1.5743577152
  S        17.8947374741       18.2106501381        4.0376700234
  N        18.4442735924       17.7894155963        2.5334564271
  C        18.9886677308       15.6235715164        1.3583029061
  H        19.6229267733       13.6040869730        0.9050416767
  H        14.3862289187       15.1190037501       11.9054955536
  H        13.6817838476       14.1358456663       13.0090283371
  C        13.0247164714       13.7600921266       10.9810014650
  H        16.8778263206       14.6278328692       11.7997654132
  H        16.1155528537       14.8641942866       13.2584495782
  C        17.5996900545       13.1222781524       13.1827047224
  H        13.9792466213       12.1667761283       14.5412898986
  C        14.0194084861        9.4631577362       15.4065875317
  H        13.9561737296        8.9559497174        1.4908130861
  H        14.1649533921       10.6561290104        1.6272572910
  C        12.4862067416       10.1048068790        0.3846365529
  C        19.2571920280       16.2476572087        0.0889276565
  H        13.2833526909       14.3596048486       10.1215481208
  H        12.9342044661       12.7197336878       10.7199163925
  C        11.6341147996       14.0831401236       11.4130969424
  H        17.8023182348       12.3772941943       12.4181904717
  H        17.3546723873       12.5879991503       14.0320201467
  C        18.8472935728       13.9520882296       13.4725476921
  C        13.9791502715        7.9965419027       15.5385400380
  C        13.8507338247       10.2250026654       16.6915428423
  H        12.0180269481        9.1680732365        0.2035273084
  H        11.7240946311       10.8859841342        0.5467525260
  C        13.3290631704       10.2421307334       -0.8612866519
  H        19.2111074208       17.2392117377        0.0883889613
  C        19.3383911543       15.7422596203       -1.1902295295
  H        11.5395523764       15.1336823002       11.6771122476
  H        11.3960046190       13.3970497832       12.2049837161
  C        10.5346671740       13.7754305983       10.3110844803
  H        19.2741302262       14.0072701660       12.4424678547
  H        18.5860151059       14.9679212040       13.6844127114
  C        19.8049257890       13.2809399692       14.4197005353
  N        14.3711830321        7.0889835042       14.4961868101
  C        13.6485313553        7.3686812483       16.7039629637
  C        13.5232043342        9.5836192689       17.8814463787
  H        13.9126854890       11.2439565605       16.6610550200
  H        13.5008619149       11.2799533169       -1.1532673984
  H        12.7722771704        9.8699715167       -1.7224363674
  H        14.2327570337        9.6229163839       -0.8678854404
  S        19.5073333425       14.0898889328       -1.6909181161
  C        19.2703206340       16.7212217205       -2.3053442990
  H        10.7534889901       14.4282970878        9.4489476978
  H        10.5955938916       12.7367455336        9.9650194144
  C         9.1198680813       13.9681680043       10.8544119464
  H        20.1229692078       12.3392980884       14.1015870943
  H        19.1273005800       13.0051344079       15.2855558690
  C        20.8977326044       14.2016837820       14.8601774251
  S        14.2410968227        5.5785978026       14.9897045184
  N        13.7194219287        5.9234679962       16.4884732168
  C        13.5328028585        8.0364801089       17.9106950498
  H        13.3150823854       10.2317738734       18.7469189080
  C        19.6404019670       14.7762908879       -3.3225981326
  N        19.5465849641       16.1394456571       -3.4431900038
  O        19.1007862838       17.9379955826       -2.1411273552
  H         9.0960130625       13.5333776093       11.8454769340
  H         9.0952886255       15.0851330848       11.0792797664
  C         8.0251490906       13.4764528228        9.8786232103
  H        20.4962350262       14.9333510335       15.6295574478
  H        21.7261309163       13.5667713548       15.2372071654
  C        21.5559873144       15.0613207338       13.7610671591
  C        13.1056709362        7.2323763643       19.0411411156
  S        20.2326830737       14.0155201512       -4.7748613113
  C        19.5580153121       16.9103718469       -4.7075198310
  H         7.3925049966       14.2765130281        9.5513474828
  H         8.3838165167       13.0280943993        8.9983258389
  C         7.0891523083       12.4422262033       10.6060641891
  H        21.2857219858       14.7476170629       12.7330448007
  H        22.6259289818       14.9595271207       13.7881553759
  C        21.3306069798       16.5792677564       14.0169521252
  H        13.3370703828        6.1878626603       18.8232619569
  C        12.5598278905        7.5605168853       20.2449546021
  H        20.1418604610       16.4648278462       -5.4919181869
  H        19.8812402997       17.9798685853       -4.5849596029
  C        18.1544387550       16.9306764447       -5.1963041793
  H         7.1600110983       12.4713664022       11.7529845614
  H         7.3703599055       11.4587988603       10.3273761264
  C         5.6715284231       12.7758626369       10.2121026813
  H        21.4279181843       17.1797074966       13.0832878561
  H        20.2551154390       16.7552391457       14.2953778975
  C        22.3895340951       17.1244077600       15.0456441417
  S        12.2305518166        9.1000917577       20.7989594460
  C        12.2805163123        6.5080136323       21.1916890408
  H        17.8600357598       16.0513748544       -5.7834205674
  H        17.9330152085       17.8153938615       -5.8178012222
  H        17.4643872347       16.9920357901       -4.3686952011
  H         4.8620405870       12.0487546917       10.5619258902
  H         5.4759447375       13.7371863042       10.5925464467
  H         5.5728998661       12.8388366285        9.1344828498
  H        21.9832973332       16.7586227975       15.9855367079
  H        23.4357349391       16.8312178127       14.8733081587
  H        22.4732949403       18.2388948256       15.0372920477
  C        11.9221452739        8.3217874957       22.3435255035
  N        12.0627637401        6.9820281820       22.4306957962
  O        12.4736696570        5.2873771064       20.9759631355
  S        11.2166472681        9.1436132170       23.7378900100
  C        11.9509920686        6.2051611712       23.7111153306
  H        11.4788139265        5.2511433409       23.6112264532
  H        11.1949714203        6.6113154416       24.3531758947
  C        13.2623548837        6.1001594446       24.4897093090
  H        13.0554523127        5.5637536435       25.3657607934
  H        13.5901008100        7.0748310636       24.8834227244
  H        14.0649813008        5.6146481547       23.9594405568
