352
 i =     9000, time =     9000.000, E =        23.5040197582
  H        11.9788762532        7.2471777290       32.2556370799
  C        11.6230561994        6.2226653578       32.3759008379
  H        12.5386849082        5.6952444571       32.2757305020
  C        10.5440892558        5.9305956985       31.4107856663
  C        11.1427150083        5.9650366845       33.8298183772
  C        11.1274562211        5.4931190723       30.0415247721
  H         9.8691299802        5.2237117398       31.8088775765
  H         9.9805005948        6.8262028770       31.1506399401
  H        10.2932840220        6.6627183556       34.0662718733
  H        10.8694788701        4.8896231852       34.0164748605
  H        11.9355603101        6.2320890933       34.5487576177
  C        10.1294557835        5.1607052408       29.0034145853
  H        11.8545787784        4.6927832078       30.1462228762
  H        11.8037921012        6.3058499462       29.7686332847
  C        10.7133053294        5.3571460610       27.6340404282
  H         9.8149955575        4.0878862816       29.1044233407
  H         9.2292755710        5.7393655899       29.0022991944
  C         9.8186791762        4.9751612828       26.4400786853
  H        11.6131528776        4.6953510621       27.6361063860
  H        11.0272172912        6.3533836095       27.5201122359
  C         8.5600048574        5.8238864984       26.3262367497
  H        10.4205772703        5.1920015449       25.5315232909
  H         9.5879104559        3.9399932775       26.4624582270
  C         7.3959733645        5.0693514978       25.6213608985
  H         8.2599102347        6.2818487520       27.2907075365
  H         8.7159519121        6.5818536249       25.6204411101
  C         7.0330245826        3.7570751151       26.2961031656
  C         7.7995929724        4.3021702009       24.3672792217
  C         6.2670744405        5.9872206926       25.3479568612
  C         7.2926554128        2.6311557707       25.6048548693
  C         6.4844916813        3.4576504570       27.5850294549
  C         7.7245022810        2.9483212718       24.3456002704
  C         8.2163373274        4.9031375904       23.1675840494
  H         6.6403260875        6.7669704652       24.6896439767
  H         5.9494867563        6.5161080032       26.2254590850
  C         5.0499550826        5.2934343879       24.8159279140
  S         6.9873007390        1.2125035042       26.5289281918
  C         6.3874707388        2.1240818821       27.8702015710
  H         6.1903760252        4.3275561957       28.1451818444
  C         7.9145394629        2.2532536464       23.2102114389
  H         8.3352806290        5.9709998764       23.0977202555
  C         8.3170567636        4.2148544875       21.9889191300
  H         5.3458313442        4.5809846915       24.0334848936
  H         4.7416215524        4.6620288033       25.6111340924
  C         3.7878126985        6.1371103729       24.5293227788
  C         5.9221296291        1.5936089050       29.2037802876
  C         8.2728333217        2.8384512252       21.9835657057
  H         7.7116424940        1.2329543496       23.2803872877
  C         8.7496985320        4.5416848992       20.7701985266
  H         3.2165451122        5.6778384990       23.7821239401
  H         4.0064346810        7.1644779796       24.1332395738
  C         2.9757896931        6.4169366952       25.8355574369
  C         5.6963752447        0.2372411056       29.4660676498
  C         5.7052373238        2.4622376947       30.3643006602
  C         8.6418684587        2.1004986622       20.7423918711
  C         8.9465421183        3.4603286975       19.9163815243
  S         9.1729295070        6.0096728219       19.9863735844
  H         2.4284070823        7.3950267656       25.8932434252
  H         3.6348565004        6.4729012802       26.6236254345
  C         1.9827595323        5.3785854795       26.1785744459
  N         5.8673603498       -0.7433780927       28.4962613750
  C         5.4218150955       -0.2671267538       30.7308172705
  C         5.2758551700        2.0287096342       31.6362760641
  H         5.9167626348        3.5035857367       30.3186425705
  C         7.4613939896        1.3087255683       20.0824531827
  C         9.8581078731        1.2299173324       21.0450803910
  C         9.3720423808        3.7875921879       18.6033226951
  C         9.5752333840        5.1462737509       18.4970882760
  H         1.3343914174        5.1846577121       25.3704196875
  H         2.4560226837        4.3836146735       26.2803602820
  C         1.2157024415        5.6530093198       27.4486624122
  S         5.8320068927       -2.1818420605       29.1895188188
  N         5.5682182346       -1.6478198548       30.7602219951
  C         5.2204868446        0.5569493444       31.8819774377
  H         5.2345781133        2.7529492666       32.3665298141
  H         7.3549297553        0.4379109531       20.7411509317
  H         7.9098915361        0.8679938209       19.1796077388
  C         6.2066156960        2.1625710440       19.7034967588
  H        10.0893086620        0.8131030033       20.0604959154
  H         9.5781487388        0.4022424489       21.7089219836
  C        10.9614884866        2.1628799120       21.7457746199
  H         9.5591125077        2.9725941534       17.9098566046
  C         9.9352444345        5.8925972964       17.2382051545
  H         0.3922589250        4.9230545921       27.4548032753
  H         0.6512717077        6.6174006164       27.4020349622
  C         2.0362986052        5.5117467118       28.6940779159
  C         5.0104530706       -0.1579216233       33.0998152890
  H         6.3238741020        3.2449570133       19.6059758524
  H         5.5337242806        2.0995586923       20.4608405287
  C         5.6591585357        1.5919935977       18.4631523246
  H        10.7302642661        2.2121233303       22.7579988228
  H        10.8324218599        3.1338465633       21.2778005176
  C        12.4239749391        1.8006665219       21.4912985170
  C         9.9807609345        7.3535530632       17.1158232585
  C        10.2303173345        5.1845906474       15.9479750338
  H         2.5998378080        4.5689289765       28.6684111262
  H         2.7980655699        6.2702808230       28.8783830003
  C         1.0940328586        5.4431573103       29.9103741264
  H         4.9485014946       -1.2121287160       32.9627420426
  C         4.6883237915        0.2083407717       34.3404582592
  H         5.7227497903        0.4839002839       18.4894457495
  H         6.3162913372        1.8619385297       17.6715836885
  C         4.1454250373        1.9236951383       18.1017995730
  H        12.5820320780        0.9079333505       22.1141214215
  H        12.6631121139        1.5050890054       20.4713305434
  C        13.3450408480        2.8618594075       22.0434032153
  N         9.6496624381        8.2457612511       18.1372533435
  C        10.3372588472        7.9521199173       15.9113361807
  C        10.5956019285        5.8199114813       14.7703945674
  H        10.1465267583        4.1248306725       15.9587408033
  H         1.6695513968        4.8043567995       30.6830713331
  H         1.0424207469        6.3503554304       30.4560027534
  H         0.1182321444        5.0309815636       29.6498809426
  S         4.3506744348        1.8600960657       34.8000357364
  C         4.6955631514       -0.8408594554       35.3867160847
  H         4.0471357595        3.0148804899       18.4016192619
  H         3.9400464502        2.0831137043       17.0319112551
  C         3.0477001547        1.1572632843       18.8790843126
  H        12.6441780242        3.4701016500       22.5911099044
  H        13.7092768602        3.4952948977       21.2551505561
  C        14.2670561253        2.3158518574       23.1155523925
  S         9.7033841457        9.7861480877       17.5191567521
  N        10.1720666291        9.3608308077       15.9842320744
  C        10.5614745671        7.2944857060       14.7050743712
  H        10.5893407458        5.3681750182       13.8167378040
  C         4.2418658725        1.1325203337       36.3833437889
  N         4.3855949212       -0.2201486567       36.5282550583
  O         4.9182816683       -2.0843010909       35.1761502726
  H         2.2357006541        1.8822935955       19.2047189811
  H         3.3773525687        0.5536381291       19.6598613734
  C         2.2588958094        0.3062892846       17.8357261086
  H        14.6201137644        3.1216175421       23.8220061968
  H        13.7124004259        1.6548987707       23.7665416564
  C        15.4515430626        1.5829893530       22.5395489507
  C        10.8291161041        8.0030329947       13.5244170772
  S         3.5445587846        2.0217858167       37.7543357157
  C         4.5322586468       -0.9591060018       37.7949921146
  H         1.2684304350        0.2539571731       18.1884874700
  H         2.1532369868        0.7884464058       16.8579448159
  C         2.8003860226       -1.0429908324       17.6003296064
  H        15.4544546057        1.8068526782       21.4359430495
  H        15.3229576738        0.5736880118       22.6236837978
  C        16.7975775936        2.0208641644       23.1290686883
  H        10.7545423955        9.1200731885       13.6636665685
  C        11.4286513448        7.7154091083       12.2634331519
  H         4.0674992329       -0.4209676208       38.5040260293
  H         4.1219445238       -1.9443997695       37.6483833032
  C         5.9817801021       -1.1102545778       38.1429109567
  H         2.7890618188       -1.5805719366       18.5782068556
  H         3.8730827343       -0.9833837148       17.3803002507
  C         2.1541047517       -1.8514161756       16.4948199348
  H        16.8410583823        2.7672803036       23.8938228252
  H        17.1347897894        1.0970184463       23.5439546261
  C        17.8793410073        2.2963156393       22.1007109317
  S        12.1670898144        6.2403548471       11.7043969122
  C        11.5428626320        8.8336529909       11.3187092483
  H         6.3233077507       -0.3474077217       38.9272658748
  H         6.1948748211       -2.1177942844       38.5889719894
  H         6.5382438575       -0.9336768814       37.2221068738
  H         1.1112374660       -2.1899905445       16.7524595683
  H         2.7880729219       -2.7700218048       16.3703296336
  H         2.0941152533       -1.2327142698       15.5777059676
  H        18.5975911261        2.9663896818       22.6231935768
  H        17.3519967244        2.7976955007       21.2561044373
  H        18.4308019252        1.3752057425       21.7653702196
  C        12.5204032570        7.0872211985       10.2996626401
  N        12.2921356339        8.3916549356       10.2648860794
  O        11.2006225964       10.0150967618       11.5927879781
  S        13.3794455346        6.3028288583        8.9475209146
  C        12.5636468027        9.2882229493        9.0940534230
  H        12.9590284860       10.2564327327        9.4005214882
  H        13.3226874070        8.9169012725        8.5273386994
  C        11.2829328229        9.4760539157        8.3261201630
  H        11.0510986358       10.4357778984        8.3184540161
  H        11.5262562299        9.1617611678        7.3249879437
  H        10.5154281150        8.8761101305        8.7743757728
  H        21.4586698882       10.7817995801        3.6363085190
  C        22.0152231356        9.8530285178        3.6574638250
  H        21.2560519060        9.0833693400        3.7152653091
  C        22.8810066630        9.9820953737        4.9312843235
  C        22.7187117042        9.7416640586        2.2478333572
  C        21.9705382395       10.3494344598        6.1869763525
  H        23.2437303809        9.0688517838        5.1434846104
  H        23.7864443226       10.6036550838        4.8747858263
  H        22.9729494407        8.7534991759        1.9928926671
  H        23.5843914047       10.4261425162        2.1934316250
  H        22.0039073149       10.0097406463        1.4711987145
  C        21.2069609373        9.1883649304        6.8068082460
  H        22.6261905043       10.7114864087        6.9100124276
  H        21.2912310877       11.1812167787        5.9565179758
  C        20.3275900034        9.5657158539        8.0673539833
  H        21.9608389330        8.4743710427        7.1370619996
  H        20.5011073459        8.7743334744        6.0300781401
  C        19.1525381633       10.4570182565        7.6859706700
  H        20.9792250457        9.9729999005        8.7764219736
  H        19.9013880702        8.6778817876        8.6689245480
  C        17.7949157551        9.7922149267        7.3587396609
  H        18.9232555943       11.3147203331        8.4168615727
  H        19.5225990401       10.9831337824        6.8088641255
  C        16.5676759149       10.7840213049        7.0630967273
  H        17.5249441088        9.1223263991        8.1636917912
  H        17.9857236756        9.0954855420        6.4739882228
  C        17.0785938460       12.0773402993        6.3883085735
  C        16.1426893980       11.4999299576        8.2478117836
  C        15.4121611241       10.2128180810        6.2637732881
  C        16.7895557409       13.2367909236        7.1139812720
  C        17.6294029037       12.3552729392        5.0817378469
  C        16.2987882057       12.8718442561        8.3516686280
  C        15.6448056655       10.7963567199        9.3648157387
  H        15.6577251128        9.6454802517        5.3840027134
  H        14.9872458349        9.4539108236        6.9025729183
  C        14.3160065772       11.2149218947        5.8602425182
  S        17.2643353714       14.6576598269        6.2017849292
  C        17.7460640862       13.7125628275        4.8597335723
  H        17.7412849310       11.6004272909        4.3910950325
  C        15.8745591531       13.5135915383        9.4970710875
  H        15.7567134069        9.7520122249        9.3536761727
  C        15.1522980127       11.4261071425       10.4632056621
  H        14.6613423652       12.1572817608        5.4017448755
  H        13.7415189487       11.6789919583        6.6844531506
  C        13.2800897236       10.6194287940        4.8573399316
  C        18.0979887272       14.2769846950        3.5257692918
  C        15.3139708593       12.7965614285       10.5922904859
  H        16.0151375901       14.6199819700        9.5562134039
  C        14.7163436863       11.0573760815       11.7011458260
  H        12.3968615825       11.2571599857        4.8131738943
  H        12.8600530111        9.7149089976        5.1551081313
  C        13.9252220069       10.5159836493        3.5377307141
  C        18.1481572180       15.6531173701        3.2640678973
  C        18.3869792090       13.4156699090        2.3277487724
  C        14.9022370378       13.4864150360       11.8734765556
  C        14.5927705463       12.1047079882       12.4992572523
  S        14.5136775942        9.5772809067       12.5315632415
  H        14.9960083981       10.1514295436        3.5847063871
  H        14.0311331482       11.5358571638        3.1994361044
  C        13.2127650644        9.4756217944        2.6308829588
  N        17.8852660906       16.7173102044        4.1919618744
  C        18.3981641682       16.1844596269        2.0226898648
  C        18.7302514047       13.9481280932        1.1383665815
  H        18.3784433263       12.2924974012        2.4658420943
  C        13.5602715359       14.2305153765       11.8173616063
  C        16.0294522141       14.2627257096       12.4791935854
  C        14.1584286825       11.7800019544       13.7943625976
  C        14.1166506042       10.4418147946       13.9713433417
  H        13.6562812084        8.5471397359        2.9666716989
  H        12.1565937068        9.5108244704        2.9357412841
  C        13.4889537586        9.6465420017        1.1242951067
  S        17.9924773037       18.1309931838        3.4528100432
  N        18.4617896606       17.5541990855        1.9906538482
  C        18.6730634110       15.4219341345        0.9107232703
  H        19.0215210067       13.3044652299        0.2571333438
  H        13.8389172332       15.0635598591       11.2027474800
  H        13.3691719566       14.7113815578       12.7716266802
  C        12.3394464144       13.5149259580       11.4020990524
  H        16.4244897006       15.0521190078       11.7747972698
  H        15.6577395220       14.7653579929       13.4026487502
  C        17.3093041617       13.5827569335       12.9984591856
  H        13.9843232380       12.5292594420       14.5136978979
  C        13.8814274430        9.7656328004       15.2487115511
  H        14.5210241188        9.4408456793        0.9045327124
  H        13.4464737809       10.7379597128        0.9278707716
  C        12.5874660754        8.9180082068        0.1543885735
  C        18.9674982301       16.1304082070       -0.3175174261
  H        12.4362893375       13.0418026532       10.4456632881
  H        12.0894869031       12.7838253182       12.1400399483
  C        11.1899659999       14.4955064560       11.3659542989
  H        17.6500687157       12.7784913726       12.2550823996
  H        16.9532351357       13.0188244089       13.8692037498
  C        18.4181412382       14.6012175483       13.3372264811
  C        13.8644050137        8.3661037621       15.4464625126
  C        13.7031106837       10.6009171563       16.4407488813
  H        12.6866436925        7.8105677341        0.3565638860
  H        11.5659940219        9.1867648811        0.3170125093
  C        12.8030157424        9.3079917162       -1.2754698588
  H        18.6283631354       17.1563154558       -0.4067717059
  C        19.3471315665       15.7369035740       -1.5657588654
  H        11.2851416004       15.1492641925       10.4972156777
  H        11.4294210768       15.1953099840       12.2194339537
  C         9.8419840243       13.7507954311       11.3014340371
  H        18.6359986393       15.0642886327       12.3773675467
  H        18.1247463386       15.2749823366       14.2090814146
  C        19.6183359463       13.8993283402       13.9079918773
  N        14.1796197837        7.4428749610       14.4363324419
  C        13.6718682866        7.8462734512       16.6968046636
  C        13.4048174794       10.0304882486       17.6747488283
  H        13.7633510956       11.6057151934       16.4147345729
  H        12.3918372902       10.2312024055       -1.4566100645
  H        12.2386814472        8.6440763116       -1.8957884298
  H        13.7888228299        9.3098845604       -1.6206303968
  S        19.7724278069       14.0732512814       -2.0873764355
  C        19.2637581220       16.7314143096       -2.5843772283
  H         9.7984099034       12.8271576868       11.8781743589
  H         9.2120952996       14.4995615923       11.7690214494
  C         9.3680149713       13.2333827695        9.8472687399
  H        19.7665183027       12.9413171663       13.4427483960
  H        19.4080791490       13.6064842541       14.9310852647
  C        20.8567486965       14.7609303801       13.9334286076
  S        14.0788301355        5.9858484356       15.0843802131
  N        13.6847062063        6.4545091471       16.6108273511
  C        13.3897444435        8.5968366396       17.8872943373
  H        13.1336061443       10.7131418524       18.5101126149
  C        19.8295583529       14.8266797322       -3.6437615343
  N        19.7232535648       16.1901134233       -3.7091298256
  O        18.9896958993       17.9220563709       -2.4771869620
  H         9.4912193350       14.0170415163        9.1103595314
  H        10.0375669232       12.4485035954        9.6006940267
  C         8.0295894883       12.6088033077        9.8223522280
  H        21.7192654957       14.0753594950       13.9344643884
  H        20.9225461119       15.2958535052       13.0042024816
  C        21.0259703034       15.5419986660       15.2119181742
  C        13.0910365791        7.8573279800       19.0799979151
  S        20.2548311585       14.0457126629       -5.1769771344
  C        19.6526114937       16.9334423021       -4.9531721797
  H         7.8282500474       12.2556335005        8.8269678465
  H         7.9219914071       11.7583197190       10.4607955214
  C         7.0038734936       13.7114142738       10.1180994954
  H        20.9529720462       14.8023657202       16.0943530563
  H        20.0938296429       16.1323541411       15.3309914821
  C        22.2562638674       16.5084220916       15.4265512862
  H        13.4434006400        6.8125582868       19.0614538717
  C        12.4354066853        8.1903312913       20.2564937711
  H        20.4130183181       16.7153207440       -5.7278308762
  H        19.8645058601       18.0075957492       -4.7426082332
  C        18.2258466855       16.8301697658       -5.6106773850
  H         7.3179548905       14.7169172645        9.7268580762
  H         6.8925348522       13.8281541766       11.1790044375
  C         5.6051420143       13.3502114838        9.6121219973
  H        22.5884351705       16.6933888056       16.5179052895
  H        23.1625346454       16.1091268402       14.9221194876
  C        22.0222114722       17.8308856349       14.6939231687
  S        11.5687628030        9.6283792517       20.4932589949
  C        12.3325996806        7.1214101901       21.3152754297
  H        18.1940520548       17.6466483311       -6.3748203602
  H        17.4027001744       16.9334317648       -4.9874001093
  H        18.0926992667       15.8659989875       -6.0846114731
  H         4.8081166202       14.0709179790        9.7803701820
  H         5.6898753767       13.2182466221        8.5114310739
  H         5.3363417022       12.3639627022        9.9356806931
  H        21.8461421157       17.6170263506       13.6383762944
  H        21.1929873418       18.4386567681       15.0764482859
  H        22.8845959263       18.3930566590       14.7439388016
  C        11.3760962034        8.9997369678       22.1217016415
  N        11.6073298523        7.6783783064       22.3046101419
  O        12.6375296669        5.9243266576       21.2984680286
  S        10.4178333039        9.7994037965       23.2906966652
  C        11.2879597690        6.9552393469       23.5534866270
  H        11.3434230483        5.9002052015       23.4553362094
  H        10.3057326412        7.1353408827       23.9315633227
  C        12.3451407755        7.2400119299       24.6441952122
  H        13.2406376735        7.6615544930       24.2336443286
  H        12.6592260632        6.3293757043       25.1822304136
  H        11.9249059742        7.9437019556       25.3930863470
