352
 i =    40000, time =    40000.000, E =        24.7714452744
  H        11.5432664004        7.2545862635       32.3962745442
  C        11.5844881251        6.3132070336       31.9938121869
  H        12.5195172111        6.0849929745       31.4857481645
  C        10.4388320356        6.0808102827       31.0130985701
  C        11.2900590236        5.6369619437       33.3648310221
  C        10.7408116565        6.4224080807       29.5390491908
  H        10.0369407366        5.1039184605       31.0692528659
  H         9.6509128378        6.7109407856       31.4074658697
  H        10.5670346572        4.7995317202       33.3251219420
  H        12.2303840583        5.2864440885       33.7947500136
  H        10.9339749740        6.2243387381       34.2108091039
  C        10.7471087665        5.2083208106       28.5886407070
  H        11.6412440279        6.9647027343       29.5357788533
  H        10.0617382450        7.0948565330       29.1195776637
  C        11.1127438055        5.5237165142       27.1125962555
  H        11.4738730609        4.4663586027       29.0331446677
  H         9.8205647884        4.6479228156       28.7008922395
  C         9.9107440917        5.0398839111       26.2190176365
  H        11.9379423113        4.9059400927       26.8874447122
  H        11.3015905658        6.5951738586       26.9621719124
  C         8.7821799859        6.0175436575       26.1285903848
  H        10.2315038989        4.9202058156       25.1885435056
  H         9.6823486484        4.0349749175       26.5744953686
  C         7.6298462623        5.3415567569       25.3767548921
  H         8.3696421847        6.3237247111       27.1650912846
  H         9.1214438609        6.8319777007       25.6462981936
  C         7.2618522466        3.9388028027       26.0510596868
  C         8.0065683753        4.5882259717       24.1471858411
  C         6.3184530030        6.2379339861       25.1042129475
  C         7.3523103234        2.8473704042       25.2762691028
  C         6.6156117822        3.5703190901       27.2209887035
  C         7.8048694826        3.2145271383       24.0476853104
  C         8.3561946746        5.1638795959       22.9633089013
  H         6.5804563889        6.9190871649       24.3615004700
  H         6.1641727776        6.7212391377       26.0817442169
  C         5.0916648834        5.5238874901       24.5598844948
  S         6.6837285653        1.3701400149       25.8436395712
  C         6.2960827999        2.2122144549       27.2915802344
  H         6.4907251088        4.2768961720       28.0291264947
  C         7.9976039627        2.5441310664       22.8783092313
  H         8.4866901849        6.2032712267       22.9324189104
  C         8.5616513618        4.5144439516       21.8011666217
  H         5.2972482623        5.2471779972       23.5735219245
  H         4.8800679212        4.5562374378       25.0095242043
  C         3.7315397798        6.2603069818       24.7372350533
  C         5.9040210163        1.5019576776       28.5665652258
  C         8.4072905781        3.1664692600       21.6732888213
  H         7.8115425215        1.4783703065       22.9598797741
  C         9.0058367780        4.8276532422       20.5406111566
  H         2.9531069400        5.8930758825       24.1025103763
  H         3.9465210489        7.2652417193       24.3127512185
  C         3.2837697710        6.5085248135       26.1602452628
  C         5.9882568259        0.1463155141       28.7747881570
  C         5.6673776324        2.2228599323       29.8201053950
  C         8.6619102802        2.3890852838       20.4671598769
  C         9.0125326744        3.7555068884       19.7234152032
  S         9.4976436156        6.2620961879       19.7670357706
  H         2.4425253379        7.1422081082       26.0063636884
  H         3.8761615980        7.1816002786       26.7713250311
  C         2.9936920557        5.1380545319       26.8095321928
  N         6.2425382755       -0.7674619787       27.7029429509
  C         5.7140601873       -0.5129627256       29.9584428609
  C         5.4517175983        1.6474915023       31.0868267137
  H         5.5576014887        3.3337155488       29.8230357551
  C         7.4853068900        1.6997172827       19.8860872543
  C         9.8777845486        1.4705669947       20.5750596156
  C         9.3990370531        4.0868127980       18.4100897377
  C         9.5774504097        5.4028740827       18.2711436405
  H         2.7451454953        4.4206549199       26.0321327240
  H         3.8879156619        4.8310148129       27.2734442464
  C         1.8815017790        5.2266617764       27.8224455593
  S         6.2104241528       -2.2701351885       28.2941683104
  N         5.8631421266       -1.9115233141       29.8317624111
  C         5.3816292754        0.1388655453       31.1705967061
  H         5.1214417089        2.1975055685       31.9772066198
  H         6.9116173822        1.0759869977       20.6264790397
  H         7.7818554047        1.0444942043       19.0194021487
  C         6.4762838270        2.6583359339       19.2415806806
  H        10.0684046137        0.8973950281       19.6692404261
  H         9.7055221270        0.7397815838       21.3811409418
  C        11.2530741743        2.1841263536       20.7389068425
  H         9.4392618751        3.2087321772       17.7538741174
  C         9.8910201248        6.1438067748       16.9662498208
  H         1.2656476540        4.3230807418       27.8338223177
  H         1.2848696066        6.1070843283       27.7425299869
  C         2.5416421176        5.2991737263       29.1982952262
  C         5.1687510748       -0.6219475083       32.3466663897
  H         6.8817241851        3.1732047569       18.3875163291
  H         6.3025429564        3.4376235063       19.9135139288
  C         5.2563125953        1.8427018191       18.8302359105
  H        11.3525791901        2.7914484007       21.6825533377
  H        11.3935591136        2.9478287703       20.0562388172
  C        12.5604297514        1.4016353952       20.7986258473
  C         9.9372641106        7.5292979410       16.8247551167
  C        10.2291523930        5.3537775225       15.7764723226
  H         3.0590623028        4.3189621249       29.3908567774
  H         3.3637917466        5.9810547435       29.1762906854
  C         1.5761902298        5.5423364384       30.3614808268
  H         4.9278871046       -1.6074297003       32.1234496607
  C         4.8930721731       -0.2116225137       33.6278450633
  H         4.6922196495        1.5809272124       19.7495595043
  H         5.5920591520        0.9600484994       18.3039062885
  C         4.3786191789        2.5639216257       17.8584397452
  H        12.5239357592        0.7809220142       21.7081031498
  H        12.7653450950        0.7431409666       19.9536821520
  C        13.7929931053        2.2819170860       20.9578563846
  N         9.5327996426        8.4454303071       17.8559671783
  C        10.3359837468        8.1682422687       15.6145416773
  C        10.4856343882        6.0070818112       14.5513236932
  H        10.1143326028        4.1752749699       15.8098216555
  H         0.9962797022        4.6484519297       30.5824476938
  H         2.1233066012        5.7592640877       31.2676340292
  H         0.8925392938        6.3678018503       30.1181129588
  S         4.7458428593        1.3471888662       34.2260236018
  C         4.5378913604       -1.2791123807       34.5950766810
  H         4.5524493942        3.6555184949       17.9056572978
  H         4.7232800317        2.2193780269       16.9547851067
  C         2.8577419482        2.2423408712       18.0370092047
  H        13.6524498332        3.2396514791       20.4213615116
  H        14.5301427907        1.7244204150       20.4129004120
  C        14.1348511196        2.5383359139       22.4415588226
  S         9.8691526945        9.9907641991       17.3378567399
  N        10.2929851635        9.5742686580       15.7815956335
  C        10.6915549723        7.4962542770       14.4542082258
  H        10.5429096007        5.4668999678       13.6298115719
  C         4.3521888921        0.6372443723       35.7987686955
  N         4.2740458860       -0.7235972616       35.7610227888
  O         4.5977118685       -2.4830794890       34.3866520464
  H         2.4329897600        2.6537310720       17.1325865779
  H         2.4799414378        2.8811765737       18.7757447158
  C         2.3785406182        0.7916977992       18.1717702754
  H        14.5958886676        3.5084472235       22.5460995069
  H        13.2148064189        2.5704111654       23.0147716312
  C        14.8762981260        1.3394577256       23.1187472423
  C        10.8656330020        8.2290380221       13.2276809961
  S         4.3432693484        1.5730832740       37.2946936738
  C         4.3371380624       -1.3975901977       37.0553231247
  H         2.7930585132        0.2244104381       18.9777785900
  H         1.2775896542        0.6345441994       18.1968542483
  C         2.8649688166        0.0732906150       16.9198638481
  H        14.8919858572        0.4581387962       22.5376999772
  H        14.3784759122        1.0129285522       24.0112130873
  C        16.2973743650        1.8548401422       23.6005176129
  H        10.5880827095        9.2489946230       13.3038074528
  C        11.4384471940        7.7935074700       12.0507207289
  H         3.7015289486       -0.9186811065       37.7682250067
  H         3.9770631514       -2.4353901948       36.8928172201
  C         5.7501243582       -1.4440624547       37.5680754075
  H         3.9065533563       -0.1428303730       17.0068747279
  H         2.6589615404        0.6031839986       16.0354257235
  C         2.2854869887       -1.3323107363       16.7215831361
  H        16.0990399747        2.7746995938       24.0447601917
  H        16.8009636395        1.1286866417       24.2083200982
  C        17.1374399090        2.0378353710       22.3712205959
  S        12.1797609849        6.2770889507       11.6515994140
  C        11.6195362879        8.7858189249       10.9637430944
  H         5.8979883767       -2.3973176973       37.9896284170
  H         6.5665908829       -1.5501537108       36.8024797997
  H         6.0030556991       -0.6438632292       38.3107194773
  H         1.8529254848       -1.8071045463       17.6565360267
  H         2.9600623602       -2.1504530400       16.3051111872
  H         1.5149081948       -1.1854270963       15.9613095133
  H        18.0593725594        2.6618946627       22.5369582848
  H        16.5799773313        2.4650758135       21.4975948399
  H        17.4092825590        0.9857221502       22.1409984240
  C        12.6391676873        6.9705516892       10.0800184407
  N        12.3592456885        8.2776529790        9.9441825319
  O        11.2910695606        9.9694044051       11.1154410020
  S        13.4487552211        6.0889648534        8.8115917126
  C        12.5709679791        9.0746275063        8.7541630586
  H        12.5893140146       10.0830404193        9.1588138979
  H        13.4789189100        8.8943497336        8.2215391222
  C        11.3279513074        9.0075584456        7.8992731762
  H        11.0160086791        8.0149371477        7.7250289843
  H        10.5431592044        9.6251313849        8.3992655193
  H        11.6162926733        9.4471834906        6.9360662510
  H        20.2188545083       11.9089329248        3.9554422302
  C        20.8245954884       11.0127614193        3.6791968081
  H        20.1447110777       10.2372602279        3.8052512316
  C        22.2226334115       10.8164467935        4.3851930235
  C        21.0232962352       10.9435067070        2.1551366446
  C        22.0803154295       11.1647793907        5.8716178831
  H        22.6837765081        9.8575802184        4.2542358819
  H        22.9498218776       11.5112775957        4.1987141010
  H        20.4341760729       11.6424371232        1.5912226543
  H        20.6814266834        9.9098900277        1.8997992134
  H        22.0563864173       11.0858059154        1.8152764053
  C        21.2510192568       10.0539405735        6.5629853371
  H        23.0529217667       11.3681740373        6.3387477811
  H        21.6302932639       12.1458141777        5.9029981940
  C        20.5134457969       10.3746554977        7.8739538674
  H        21.9648397847        9.2244388815        6.8698187652
  H        20.6099377927        9.5786258973        5.8464673315
  C        19.1344653827       11.0545410586        7.6435778681
  H        21.1295092837       10.9046943157        8.6193763586
  H        20.1661096551        9.3988813834        8.2760762139
  C        17.9553436379       10.2163996532        7.0754054716
  H        18.7938960553       11.6487983387        8.5914277587
  H        19.2926759174       11.7897305420        6.9020493759
  C        16.6495772834       11.0353442167        6.8004297686
  H        17.7727751323        9.3358488011        7.7704695567
  H        18.4009147449        9.7082454620        6.1707514728
  C        16.9924301095       12.4385486835        6.2267002067
  C        16.2714698455       11.7364547271        8.0946216945
  C        15.5295352968       10.3274236309        6.0294403223
  C        16.7520916110       13.5089592013        7.0690532466
  C        17.4841562976       12.9426001046        4.9874695783
  C        16.3516919174       13.0881329146        8.2978187121
  C        15.8309943398       10.9914357671        9.2098990463
  H        15.9162911086       10.1451726598        5.0379787674
  H        15.4481982147        9.4018539396        6.5748165824
  C        14.2520637288       11.1817397364        5.8848686557
  S        17.0576875491       15.0814245699        6.3940159872
  C        17.5650176632       14.2980350891        4.9001548211
  H        17.7276920030       12.1804100033        4.2829519210
  C        16.1621360997       13.6703156302        9.5562103986
  H        15.8185892924        9.9040320757        9.1466046128
  C        15.6243568828       11.5299031828       10.4620410038
  H        14.5620396386       12.0905948389        5.3934446361
  H        13.7146159032       11.4477359250        6.8436454842
  C        13.2591925545       10.5938976546        4.8945759253
  C        17.8773597990       15.0190867593        3.6594179193
  C        15.7949479240       12.8613513926       10.6592773000
  H        16.3630602818       14.7039893689        9.6892858143
  C        15.2007232144       11.0989888195       11.7199001993
  H        12.4799972366       11.2476176476        4.8918189479
  H        12.8711943736        9.6591045857        5.2604088626
  C        13.7248079977       10.4438185399        3.4885404688
  C        17.9701697258       16.4694333663        3.5514963079
  C        18.1919059633       14.2345076586        2.4518244840
  C        15.4125912651       13.5273869727       11.9750535139
  C        15.1420989451       12.1637313148       12.6322220258
  S        14.7313185343        9.6006799306       12.4037918542
  H        14.1779577635        9.4570874851        3.3546643697
  H        14.5698239172       11.1456393099        3.3635000317
  C        12.5807722226       10.6401264934        2.4447699045
  N        17.8609486897       17.3804881309        4.5594240864
  C        18.2541666677       17.0702033743        2.3239137494
  C        18.4891098440       14.8291457181        1.2754867990
  H        18.1318212522       13.1440050357        2.4319136760
  C        14.1330926680       14.3492380298       11.9002052669
  C        16.4523885004       14.3290450264       12.6751012715
  C        14.7227025597       11.7266149285       13.8903694194
  C        14.5357915520       10.3662103747       13.9659336905
  H        11.6837555957       10.1704506419        2.8637309297
  H        12.2673610057       11.6549588771        2.2796781972
  C        12.7640073113       10.0085624318        1.0741386289
  S        17.9082036233       18.8887935534        3.9377931797
  N        18.1870371169       18.4505889108        2.3965944497
  C        18.6231711659       16.2982578921        1.1657914391
  H        18.6446284868       14.2153397893        0.4201725198
  H        14.3247568608       15.3374378154       11.4243078395
  H        13.7633075430       14.6201880584       12.8489197991
  C        12.9689085924       13.6749700072       11.1498602346
  H        16.8097370563       15.0200632679       11.9208989462
  H        15.9576875209       14.9444099575       13.4647701534
  C        17.7105312015       13.5368423533       13.1355290921
  H        14.6354452790       12.5055375789       14.7017721195
  C        14.1140803393        9.5622034586       15.1124909087
  H        12.7882512785        8.9757004237        1.2386389032
  H        13.7188636009       10.2365879822        0.7344539947
  C        11.8183974182       10.3153229912       -0.0207167912
  C        18.8342741557       16.9914338724       -0.1157102393
  H        13.2618784361       13.6208026135       10.1222883707
  H        12.9934446606       12.6213206195       11.3291741012
  C        11.6069899034       14.3639322842       11.1603606692
  H        18.1462563001       13.0412400072       12.3260702863
  H        17.4694667748       12.7305171665       13.8511508966
  C        18.6143457951       14.5561680609       13.8907058626
  C        14.0368995268        8.1779477814       15.2816443704
  C        13.8749681247       10.2871474672       16.4437071044
  H        10.9039150753        9.7511588039       -0.0345118995
  H        11.3907700702       11.3257860170        0.1267273808
  C        12.4999508379       10.4948678400       -1.4493014280
  H        18.7530047914       18.0725780870       -0.0386943031
  C        19.0906298915       16.5441748883       -1.3894359045
  H        11.5075199370       15.0782760704       10.3610102956
  H        11.5312160197       14.9085144736       12.0974384197
  C        10.4780075396       13.4448332212       11.1674668421
  H        18.8341315976       15.4277965212       13.2274976205
  H        18.2484724059       14.9050941182       14.8578490562
  C        19.9145140134       13.7771859718       14.2577781283
  N        14.2888001794        7.2294965666       14.2306054246
  C        13.5717723954        7.5054053668       16.4270094175
  C        13.3801221813        9.6517889892       17.5430975739
  H        13.8479869694       11.3264546463       16.5411847373
  H        12.3126819136        9.5677927719       -1.9414609384
  H        13.4929329913       10.7776776082       -1.3826664741
  H        12.0156173513       11.3477740593       -1.9626155928
  S        19.3676645354       14.9457153196       -1.8121186212
  C        18.9336434686       17.5505191845       -2.4747269244
  H        10.6256522701       12.5220828790       10.5806662422
  H        10.4768967042       13.1739254670       12.2475812478
  C         9.1143718375       14.0023512736       10.8615601972
  H        19.8815951049       12.8330548392       13.7403057009
  H        20.0154293087       13.4797962168       15.2999194949
  C        21.1994242248       14.6274299120       13.8175987202
  S        13.9937697418        5.7161599797       14.8681027724
  N        13.5664438812        6.1120381262       16.3518234174
  C        13.1986770023        8.1406630412       17.6231954543
  H        13.2558990638       10.1859554098       18.4305849581
  C        19.4883711105       15.5207551542       -3.4544755327
  N        19.2061070314       16.8789923062       -3.6385720616
  O        18.7162490783       18.7193036926       -2.3004073261
  H         8.4538018431       13.8654221061       11.7158856483
  H         9.1678759394       15.0423841338       10.5405116984
  C         8.4734912485       13.2176764047        9.7209404997
  H        21.9399966067       13.9243413556       13.3972005170
  H        21.1432010719       15.3079051300       12.9513974680
  C        21.7963391831       15.2712560471       15.0747582445
  C        12.9312125880        7.4288660735       18.8168563358
  S        19.7491113353       14.5395035120       -4.8544094974
  C        19.2301115112       17.5672640697       -4.9540200000
  H         9.0438224650       13.3384309264        8.8058998367
  H         8.5189445759       12.1505630606       10.0047203750
  C         7.1259537452       13.7531394101        9.2878627569
  H        22.7766375909       15.5631609357       14.7916137063
  H        21.8957751723       14.5610529694       15.9086650656
  C        21.1397102123       16.5212877368       15.6732861993
  H        13.4214842496        6.4230241975       18.7569261425
  C        12.4694735692        7.7277743102       20.0948610139
  H        19.9702717401       17.1669732252       -5.6349552274
  H        19.3022541885       18.6427149170       -4.8693501477
  C        17.8685551110       17.3582307976       -5.5920335892
  H         6.9178709129       13.4195613367        8.2989062329
  H         7.1616417060       14.8540442625        9.1787286494
  C         6.0525319419       13.4003484574       10.3265326667
  H        20.0710044138       16.4656497233       15.7632133346
  H        21.4623452397       16.6842766593       16.7054697593
  C        21.4195243347       17.8453115475       14.8719626910
  S        11.8535297197        9.2330521028       20.5886591083
  C        12.4705363103        6.6483898916       21.1121243438
  H        17.7878607824       16.4567354172       -6.1598387349
  H        17.5590254288       18.2043303777       -6.1687934089
  H        17.1648571141       17.4484379936       -4.7830249560
  H         6.2107259910       13.9640433842       11.1795761482
  H         5.0717187726       13.6100434930        9.9902072974
  H         6.0519552300       12.3143984153       10.4916635786
  H        21.0697690550       17.8790650613       13.8443361775
  H        20.9414075493       18.6566724247       15.3546676256
  H        22.5359220069       17.9539082555       14.9476302909
  C        11.6115886224        8.4257389339       22.2048369355
  N        11.9017258893        7.1337266435       22.1938692953
  O        12.7273729259        5.4460490064       20.8467125362
  S        11.0232077039        9.3096354851       23.7322148875
  C        11.8513332675        6.3066446337       23.3481737991
  H        11.7649377371        5.2338760057       23.1406482000
  H        10.9025064509        6.4186491781       23.8888130682
  C        13.0113523294        6.6313796980       24.3173917856
  H        13.0111084825        7.5908765172       24.7532796988
  H        14.0188225950        6.4706479598       23.9227534986
  H        12.9556645594        5.9589361606       25.1743996328
