352
 i =    39300, time =    39300.000, E =        24.9829392274
  H        11.9063153068        6.8272988825       32.2846782786
  C        11.6415348893        5.7587596169       32.1396211050
  H        12.4677602797        5.0856999026       31.8758888499
  C        10.5336357510        5.6194299404       31.1023254805
  C        11.1160307072        5.0655792185       33.4350129363
  C        11.0002693737        5.9120928297       29.6616051720
  H        10.1211939314        4.6595558214       31.1328415255
  H         9.6965414340        6.1985091829       31.3876499029
  H        11.8775596414        5.1699334991       34.2677639678
  H        10.2117081884        5.6179406769       33.7842851564
  H        10.7940944105        4.0455146935       33.2791009075
  C        10.4717752642        4.7858376834       28.6702012005
  H        12.0418668299        6.0352288175       29.5546682647
  H        10.4594011978        6.7902243203       29.3468781514
  C        10.8555781704        5.2820131746       27.2895780770
  H        11.0157245225        3.8753117635       28.8302185878
  H         9.4369148721        4.4881158851       28.8270182082
  C         9.8998260866        4.8492032166       26.2105959119
  H        11.8209128234        4.8257294808       27.0281188695
  H        10.9570413743        6.3869579230       27.3328252912
  C         8.5634717000        5.5657837156       26.2533055330
  H        10.3842895348        4.7725375222       25.2681778520
  H         9.7163850477        3.7999832277       26.3883133964
  C         7.4314691672        4.8625245633       25.4323507419
  H         8.2900210064        5.7249366078       27.2062333366
  H         8.7611747176        6.6329563270       25.7951714183
  C         7.0266341036        3.5735505928       26.0930085940
  C         7.8317053421        4.1829450984       24.1967479519
  C         6.1306287693        5.7977262453       25.3736540821
  C         7.2114279767        2.4816034895       25.2794435703
  C         6.5528403616        3.2077199813       27.3247275978
  C         7.7918338828        2.8552273080       24.0715708728
  C         8.3943883571        4.8848441786       23.1119124033
  H         6.4030422656        6.6965039637       24.7467548547
  H         5.8646427498        6.0368032492       26.3984488263
  C         4.9165530287        5.0794117940       24.6663333710
  S         6.9125590915        0.9830588246       26.0287103650
  C         6.3089022956        1.8145705899       27.4218138205
  H         6.3796875554        4.0806354816       27.9573597661
  C         8.2053595904        2.2624208030       22.9198303241
  H         8.3735199100        6.0144034340       23.1248791018
  C         8.7067408238        4.3211833193       21.9507109830
  H         5.2032362487        4.9409542167       23.6404614560
  H         4.7452970667        4.2100745620       25.1715663713
  C         3.6751278917        5.8716651471       24.6243225762
  C         5.8068924094        1.0831640798       28.6099162503
  C         8.6926719363        2.9427185051       21.8281448103
  H         8.0685919312        1.1821299994       22.8453586899
  C         9.0791490680        4.6975705476       20.6442862284
  H         2.9590822252        5.2356766472       24.0574461748
  H         3.7775028932        6.6429347259       23.9691632793
  C         3.0672456703        6.3539776069       25.9595194450
  C         5.8462837160       -0.2870983463       28.8417241901
  C         5.3481833042        1.9148410507       29.7269013233
  C         9.0603067571        2.2555430517       20.5078558767
  C         9.2999693911        3.6017720764       19.8568090927
  S         9.2278349842        6.1482259382       19.8443489205
  H         2.4166852728        7.1746568044       25.7175348044
  H         3.8785869938        6.7047577070       26.5424507667
  C         2.3335874438        5.1545244172       26.7143389211
  N         6.3386177149       -1.2460146487       28.0049013960
  C         5.5539002096       -0.8425501020       30.0500269088
  C         5.0579559896        1.3650697573       30.9896001638
  H         5.2475240076        2.9351586094       29.5509021790
  C         7.9085918825        1.4104523542       19.9300801474
  C        10.4195977798        1.4435803448       20.5908597786
  C         9.6411253977        3.9716774798       18.5520390012
  C         9.6213308459        5.3127750561       18.3847062613
  H         1.7240079306        4.7386925096       25.9123453324
  H         3.0637533939        4.4347309022       27.0535131020
  C         1.4951775735        5.5156424695       27.9269965006
  S         6.2276167125       -2.7395816030       28.6509903967
  N         5.6137952191       -2.2339096505       30.0321568413
  C         5.2023989205       -0.0850220792       31.2121458283
  H         4.7118667050        2.0309293803       31.7469657454
  H         7.5597460089        0.7312345396       20.7256607341
  H         8.3483440784        0.8132528248       19.1711220886
  C         6.7139879578        2.1316525605       19.3051300058
  H        10.5805575323        0.8996271881       19.6527966269
  H        10.3452034595        0.7283823262       21.3885826402
  C        11.6681041782        2.3081867683       20.9569568517
  H         9.8781486337        3.2838700115       17.7919015716
  C         9.9517280227        6.0552206618       17.0857404336
  H         0.9429537271        4.6734833640       28.1689748662
  H         0.9063212640        6.4046684554       27.8074707186
  C         2.3893281580        5.7885573003       29.1095388937
  C         4.9699332544       -0.8074353080       32.4469799332
  H         7.1189606972        2.4926501941       18.4202384439
  H         6.4194531289        2.9589738199       19.9556550568
  C         5.4225923453        1.2542936262       19.0803213333
  H        11.4759782074        2.7926949601       21.9229494761
  H        11.7646689423        3.0660153939       20.2207397909
  C        12.9830998692        1.6407728005       20.8658083143
  C         9.8871126065        7.4627049861       16.9189847930
  C        10.1180542107        5.2762041143       15.8398519435
  H         3.2114905859        5.0640303230       29.0944292470
  H         2.9613157677        6.7197653983       29.0019631803
  C         1.6256915818        5.8403043700       30.4214006100
  H         4.7247888659       -1.8305850646       32.3209680388
  C         4.7929763771       -0.3615308589       33.7634738806
  H         4.9832391546        0.8413262572       19.9612895292
  H         5.6896985278        0.3776715520       18.4936358983
  C         4.3969188383        2.0029030883       18.2425887418
  H        13.0474728041        0.8471926600       21.5996245784
  H        13.0371936135        1.0907549645       19.8625049266
  C        14.1398772018        2.5951889302       21.0407279686
  N         9.5712534340        8.4312335786       17.9176887468
  C        10.3026224132        8.0432870537       15.7051236265
  C        10.3424992359        5.8689643534       14.6082300241
  H        10.0974371486        4.2582450063       15.8559472954
  H         0.8497209483        6.6339055457       30.4119377008
  H         1.2261057364        4.8286208595       30.6864191525
  H         2.3303077862        6.0020748154       31.2338660831
  S         4.5223102264        1.3073233039       34.2135547062
  C         4.6856733041       -1.4286423524       34.7528166084
  H         4.4785014892        3.0317206002       18.6012672945
  H         4.5329380969        1.9986240432       17.1244075009
  C         3.0076405996        1.5388165460       18.5630832033
  H        13.8255853614        3.5507594120       20.6766818739
  H        14.9421009815        2.3983731495       20.3060973519
  C        14.6032791977        2.7415172026       22.4821724413
  S         9.7584645199        9.8653246517       17.2585944896
  N        10.3353231995        9.4252647356       15.7716096617
  C        10.5225606446        7.3481415361       14.5351349963
  H        10.6066294410        5.3049920160       13.6967594270
  C         4.4448419204        0.5752462507       35.8695932622
  N         4.4520383450       -0.8260875897       35.9488967871
  O         4.9855946393       -2.5584497853       34.5396661067
  H         2.4158020934        2.0515350999       17.8728918667
  H         2.7494805811        2.0563753939       19.5034136763
  C         2.6625813310       -0.0114468435       18.5761390089
  H        15.3171654253        3.5755169469       22.5451092374
  H        13.7261450602        2.9603733857       23.0173605581
  C        15.1979306206        1.4401279408       22.9880037607
  C        10.8181554128        8.1410681924       13.3638935954
  S         3.9178185062        1.4805003105       37.2076358218
  C         4.6000886276       -1.5874501209       37.1605154639
  H         3.4400131708       -0.5338425963       19.0784282270
  H         1.7664289484       -0.1165083725       19.0610269828
  C         2.5928826880       -0.5670938171       17.1250017182
  H        15.2507948109        0.8089478763       22.1087858835
  H        14.4823123819        0.8814181291       23.6340034634
  C        16.5913245610        1.5834686335       23.6514672835
  H        10.6069959811        9.1889886476       13.5222270353
  C        11.3001521060        7.9468283817       12.1306544269
  H         3.8956333021       -1.3410226270       38.0017258964
  H         4.2981052498       -2.6163403193       37.0578739943
  C         5.9894010642       -1.5417673873       37.6685221669
  H         3.6199077970       -0.7175723836       16.7285555436
  H         2.2356514160        0.1687766194       16.4643110686
  C         1.7186390643       -1.8487978455       17.1293192474
  H        16.4125231233        2.4132244111       24.3308744624
  H        16.7548782663        0.6642528996       24.2231036057
  C        17.7982216704        1.8839530057       22.7225054175
  S        11.7354020456        6.4603794689       11.4414154003
  C        11.4127042823        9.0684347979       11.1414662601
  H         6.2722871912       -2.4324516388       38.2779755736
  H         6.6793838806       -1.4971341938       36.8934969908
  H         6.0578349480       -0.7160405427       38.2702981422
  H         1.8879754262       -2.3956358509       16.2145708570
  H         0.7098102323       -1.6877478115       17.4452578583
  H         2.1889154515       -2.4416317176       17.9300307041
  H        18.5910265393        2.3513443077       23.1860531035
  H        17.4592698582        2.3599911975       21.8320104625
  H        18.2138573502        0.9705351612       22.4548163476
  C        12.2793780572        7.2444755314       10.0118905446
  N        12.0784402571        8.5819011106       10.0618705150
  O        11.0301781789       10.2055826499       11.3481441918
  S        13.0244693913        6.4994154196        8.6182042970
  C        12.2790933991        9.4308335486        8.8633886482
  H        12.4681930450       10.4680853957        9.1605331480
  H        13.1244372801        9.0921254683        8.2443165419
  C        11.0495845363        9.4785255686        8.0020683974
  H        10.1440479369        9.1818352544        8.5821662626
  H        10.9751939628       10.5108826746        7.8128958797
  H        11.1382460343        8.9661651134        7.0177542774
  H        21.0785405820       11.7395546549        3.3500481671
  C        21.6637391304       10.7998221547        3.5223638264
  H        20.8634801753       10.0728517601        3.6189275854
  C        22.5221367803       10.9314518669        4.8232670111
  C        22.4197950640       10.5436215681        2.2673810343
  C        21.6530920438       11.1440750282        6.0499961892
  H        23.1679247046       10.0533161394        4.9286659002
  H        23.3466070089       11.6808666851        4.7268073248
  H        21.7394831975       10.4516528705        1.3718315966
  H        22.8995652462        9.5356562084        2.2590444709
  H        23.0442066315       11.3632989944        1.9923789810
  C        20.9319760765        9.8676337646        6.4809576286
  H        22.2448434237       11.5742217863        6.8305733970
  H        21.0877518580       12.0931261490        5.8141632135
  C        20.0157054268       10.0583464786        7.7265309440
  H        21.6051365806        9.0979659793        6.8077222060
  H        20.3716122192        9.3532307483        5.6794812962
  C        18.8051122740       10.9903875252        7.6466568111
  H        20.6750922194       10.1090760360        8.6049878034
  H        19.6212716928        9.0917647787        7.9526609138
  C        17.6096691468       10.2090468940        7.0724691461
  H        18.4776213986       11.4332202972        8.5799074740
  H        19.0332289011       11.8727995990        7.0897565591
  C        16.3697067569       11.0707572787        6.9541235335
  H        17.4020599145        9.4505084634        7.6708170347
  H        17.9593201790        9.6703196108        6.2199240964
  C        16.6871440638       12.4041042413        6.2468339194
  C        15.9799837781       11.7485496385        8.2285998443
  C        15.1898024291       10.3597625241        6.2619819949
  C        16.5441978593       13.4437649492        7.1354275546
  C        17.2256320493       12.7887151534        4.9877738509
  C        16.0798244681       13.1015725278        8.3746142187
  C        15.5565766383       10.9734352656        9.3154535297
  H        15.4830490283       10.0386137279        5.2581602934
  H        15.0822008919        9.3970788655        6.7899679746
  C        13.9414721573       11.3440590188        6.1567921501
  S        17.0736624091       14.9223816556        6.4008514995
  C        17.4501272502       14.1449877262        4.9428803863
  H        17.1884282665       12.0903821664        4.1713934821
  C        15.7028446972       13.6332462173        9.5762293398
  H        15.5620017059        9.8968693729        9.1289558445
  C        15.2380153244       11.5050679105       10.5090434787
  H        14.1270045109       12.3652185305        5.8870264316
  H        13.5208681703       11.5448818908        7.1518297779
  C        12.7803037151       10.9807976124        5.0993379581
  C        17.7648855755       14.9367470371        3.6698628302
  C        15.2319850049       12.8783456368       10.6683869410
  H        15.7596339301       14.7244722485        9.7341750436
  C        14.8454183343       11.0745893532       11.7878048105
  H        11.7958923519       11.3610698731        5.3768914675
  H        12.6555048531        9.8844417317        5.0749213693
  C        13.1771570997       11.4126575675        3.6733742961
  C        17.7818044332       16.3154685017        3.4358722718
  C        18.3008657716       14.0844594145        2.5082872933
  C        14.6077900887       13.5790973994       11.8595130400
  C        14.4561687289       12.1702678640       12.5945532917
  S        14.6186719999        9.4896522748       12.4478604444
  H        14.2021251870       11.2138480384        3.5344040454
  H        13.0502241775       12.4713526796        3.6143479868
  C        12.4164624248       10.7445343841        2.5151679056
  N        17.5598214631       17.3018842055        4.4296127835
  C        18.2471934144       16.9400093543        2.2327345412
  C        18.6655572066       14.6835067764        1.2886315763
  H        18.5918660275       13.0460330139        2.6309440386
  C        13.3494740659       14.3183475998       11.5333080816
  C        15.6270844721       14.3990361824       12.6806572330
  C        14.0040725415       11.6755154634       13.8186787121
  C        14.1163983136       10.3110346808       13.8830782152
  H        12.1192499992        9.7473991731        2.7897858444
  H        11.4825070859       11.2131341878        2.2804674805
  C        13.2548816900       10.6562995134        1.2581375503
  S        17.6473151248       18.7911009106        3.7662442035
  N        18.1831585544       18.3144063421        2.2892949994
  C        18.5868561716       16.1712459861        1.1009657083
  H        19.1937455021       14.0879624993        0.5647275749
  H        13.5041478873       15.2313600299       10.9337456026
  H        12.9747410670       14.6397881804       12.5211371164
  C        12.1511699101       13.5171149416       11.1066461701
  H        15.9972357796       15.2540534733       12.0819824050
  H        15.1994102312       14.8414176909       13.5669752441
  C        16.9099564863       13.6733471836       13.1386513002
  H        13.6657993724       12.3168183186       14.5209035595
  C        13.8549970065        9.4873179410       15.1151727720
  H        14.0029686292        9.8574242977        1.3589567477
  H        13.6479382929       11.6830674163        1.2236872800
  C        12.3565410705       10.5746923491       -0.0192701959
  C        18.8972453604       16.8654731163       -0.1374220671
  H        12.3587799014       13.3115933219       10.1086126506
  H        12.0382953020       12.6445637357       11.7004064809
  C        10.8587337990       14.2656194952       11.0495147247
  H        17.4861936839       13.2892239417       12.2853623816
  H        16.7244655255       12.7668388613       13.6663017995
  C        17.9021860531       14.5501115254       14.0658009625
  C        13.8288266958        8.0226359392       15.2330986350
  C        13.4872578738       10.2509179902       16.3738873754
  H        11.9236472676        9.5931170136       -0.0346394865
  H        11.4486906270       11.1980642626        0.1064413551
  C        13.0581791781       10.9228778023       -1.3020903564
  H        18.8730305061       17.9394203906       -0.0320461906
  C        19.1595598223       16.4286306413       -1.4265026377
  H        10.9329756247       15.1767355883       10.4087466894
  H        10.6156954799       14.4781640981       12.1196517501
  C         9.8881300680       13.2784626875       10.4568375507
  H        18.0228585421       15.4677742184       13.5220925096
  H        17.3637315865       14.6663599905       15.0247550241
  C        19.0859149356       13.7552158335       14.5760849077
  N        14.1016601043        7.0609492942       14.1961840631
  C        13.6254265284        7.4305093922       16.5079227207
  C        13.4534521239        9.6082168440       17.5639336866
  H        13.3752233216       11.3127101120       16.3077640725
  H        12.7231157410       11.9683512286       -1.6187708199
  H        12.8306011980       10.3433753323       -2.2004440641
  H        14.1512080005       10.8449850219       -1.2354873553
  S        19.2647584430       14.7951435411       -1.9307506686
  C        19.3126463521       17.4853294002       -2.4465621729
  H        10.4205370474       12.9195465432        9.5646367756
  H         9.8060265473       12.3852530546       11.0569255050
  C         8.5209693218       13.7711991946       10.1464008123
  H        18.9162920792       12.6906797619       14.4902661177
  H        19.2310306045       13.9566646138       15.6413075074
  C        20.3024110631       14.1586037950       13.7432473766
  S        14.1668437021        5.5906513824       14.8521739736
  N        13.7061707407        6.0094350020       16.4027538489
  C        13.3566017649        8.1124743383       17.7303616053
  H        13.2658002089       10.2899611772       18.4213929247
  C        19.5871607492       15.5227978411       -3.4991605967
  N        19.7069156832       16.8403300148       -3.5904301286
  O        19.4249387824       18.6596888375       -2.1501788268
  H         7.9770110962       13.8618127911       11.0931411330
  H         8.4943010455       14.7576160950        9.6723249620
  C         7.7593215896       12.9167003073        9.0982359672
  H        20.5851220832       13.4651162908       13.0102961685
  H        20.0813757004       15.1168229070       13.1929407371
  C        21.5361588725       14.3330116526       14.6238932238
  C        13.0253563148        7.4423449409       18.9492772841
  S        19.9874647364       14.5800268517       -4.9176698567
  C        19.7595854579       17.6880601342       -4.7854488045
  H         8.4820772096       12.7328696220        8.2840947869
  H         7.3765643027       11.8861364969        9.3005251948
  C         6.5981314088       13.7235722956        8.5588037524
  H        22.3847797002       14.1024357537       13.9680702883
  H        21.4892003760       13.5931959631       15.4099740145
  C        21.7018511012       15.7784733749       15.1764913594
  H        13.0935717683        6.3815098713       18.8668245052
  C        12.3904766359        7.8843098895       20.0999472081
  H        20.4152492602       17.3895022990       -5.6214455483
  H        19.9874024804       18.7761058442       -4.5149407925
  C        18.3867856149       17.7273748558       -5.4642897507
  H         6.3032929805       13.2627961954        7.6297924047
  H         6.8518449076       14.7867527106        8.2584137513
  C         5.5046462763       13.6906087841        9.6209710011
  H        20.7050313979       16.0434938241       15.4870188704
  H        22.2852783335       15.8513276845       16.0757581150
  C        22.2087852781       16.7123217066       14.0641578748
  S        11.9061686358        9.5597610679       20.3245505268
  C        12.1559595774        6.9629988498       21.2159601513
  H        18.2617456734       16.7996865792       -6.0776097002
  H        18.1227745638       18.6711609573       -5.9990984851
  H        17.7090496417       17.6062106712       -4.6058942768
  H         5.7744418698       14.2066546177       10.5114133474
  H         4.5346783604       13.9825501060        9.2519925096
  H         5.4870434453       12.5955227051        9.9680224549
  H        21.3727321880       17.1871559928       13.4919800212
  H        22.6955771351       17.5533212679       14.5786252758
  H        22.8930243191       16.2906617414       13.4216097214
  C        11.5369167568        8.9806261429       21.9338229086
  N        11.5871753249        7.6553925129       22.1856850996
  O        12.4890680588        5.8294974391       21.1989210442
  S        10.9144230457        9.9721083670       23.1649529636
  C        11.3146895440        7.0519223584       23.5063867111
  H        11.1554119097        5.9872942934       23.3911022096
  H        10.3729352833        7.4514951444       23.8786318161
  C        12.4434988505        7.4035379337       24.4325180750
  H        12.8404287454        8.3443749154       24.0778111240
  H        13.2082076392        6.6184553978       24.4725754908
  H        12.0890291272        7.4190265445       25.4618224902
