352
 i =    24200, time =    24200.000, E =        24.9401760720
  H        10.3554344624        7.0481618546       33.0158621084
  C        11.1169318534        6.5935978286       32.4830120601
  H        11.9285086263        7.3235347719       32.5243191372
  C        10.5126604059        6.4151818211       31.1441769837
  C        11.6058481444        5.2997137477       33.2217786511
  C        11.5343806208        5.8613603694       30.1013270916
  H         9.7264227229        5.6518800331       31.2611130311
  H        10.0543501032        7.3528277142       30.8063103418
  H        12.3802768125        4.8320626302       32.6256141600
  H        11.8269923595        5.5529663780       34.2536377320
  H        10.8089059935        4.6274880528       33.4453377019
  C        10.8398510173        4.9763986487       29.0186414209
  H        12.2796582290        5.2084826171       30.5247862026
  H        12.0651541084        6.7576819664       29.7255522265
  C        10.9283891319        5.4455479047       27.4513642605
  H        11.1856670598        3.9215527438       29.1322540908
  H         9.7290904342        5.0040830253       29.1856823901
  C         9.8458758959        4.8254334741       26.5830384365
  H        11.9077729143        5.1815957327       27.1340791800
  H        10.8787169603        6.6326167344       27.5427403974
  C         8.4790057639        5.6339541754       26.5219446992
  H        10.3369672691        4.7139190826       25.6454684787
  H         9.6921173590        3.7947218247       26.9926755932
  C         7.3370534661        4.9396632715       25.7229651372
  H         8.1741852026        5.8688563703       27.5403010273
  H         8.7157593303        6.6038719560       26.0238634720
  C         6.9447118860        3.5991414590       26.3684002458
  C         7.7810109402        4.2634620502       24.5125978727
  C         6.0701289305        5.9018425800       25.5009629191
  C         7.2211791640        2.5082728525       25.5598299181
  C         6.4206068221        3.2339782971       27.6041790176
  C         7.6688589963        2.9263747168       24.3313026814
  C         8.2888864813        4.9404684853       23.3192982806
  H         6.4844034355        6.7476408221       24.9433009114
  H         5.7713439821        6.3449596538       26.4734912022
  C         4.7600804866        5.3116354206       24.8635023514
  S         6.6430844514        1.0345562782       26.2182988580
  C         6.1932542526        1.8591600803       27.6833037422
  H         6.2475897997        3.9742542335       28.3450681750
  C         8.0378378726        2.3228164794       23.1633905631
  H         8.3554113764        6.0418273048       23.4239341948
  C         8.6083211847        4.3547585810       22.1577295006
  H         4.8556225522        5.3251951775       23.7749923892
  H         4.6669067406        4.3037141058       25.1804209342
  C         3.4363807970        5.9623001305       25.2991098415
  C         5.6693915855        1.0984015124       28.9085342070
  C         8.5322880072        2.9841178846       22.0846072555
  H         8.0672891511        1.2545885719       23.1664051023
  C         8.8792133260        4.7382816769       20.8955778181
  H         2.5696051063        5.5848497548       24.7340962071
  H         3.5145602718        6.9686659353       24.9072194180
  C         3.0399313636        6.0674922612       26.7672194434
  C         5.7858323437       -0.3080609437       29.2228660454
  C         5.1946310583        1.8929455860       30.0144318271
  C         8.8969856615        2.2832967892       20.7855681180
  C         9.0992013240        3.6757031413       20.0831699889
  S         9.2114935039        6.2397464793       20.2760380855
  H         2.1327411732        6.5628469852       26.5901168132
  H         3.6691683635        6.7867893465       27.1634272758
  C         3.0313279615        4.8670650990       27.7161331975
  N         6.0832113591       -1.2974650003       28.2915999421
  C         5.6685875095       -0.7452162736       30.5604201462
  C         4.9861541308        1.4833514497       31.3150121505
  H         5.0692528664        2.9155805769       29.7397795777
  C         7.7467527874        1.4717277475       20.1941151288
  C        10.1941091251        1.4533050310       20.8778664616
  C         9.4773535305        4.1282900180       18.7820249959
  C         9.4577361310        5.4974515813       18.7807512768
  H         3.2683474652        3.8366832619       27.3223941422
  H         3.8082224167        5.0085917205       28.4322621008
  C         1.6899217462        4.7488649514       28.5483806125
  S         6.2251449595       -2.7234269000       29.1139872711
  N         6.0062414686       -2.1285079804       30.6234356631
  C         5.2875255565        0.0271914829       31.5982862146
  H         4.6255979585        2.2131686149       32.0484079023
  H         7.4480311997        0.7927985281       21.0486287212
  H         8.1437011846        0.9830004460       19.3158199360
  C         6.5202519179        2.3283959800       19.6868367711
  H        10.2596260074        0.8366081372       19.9993160687
  H        10.0769796737        0.7679958860       21.6975796458
  C        11.4433074536        2.3482228807       21.1714366564
  H         9.6118638122        3.4620914028       17.9930742687
  C         9.8924763122        6.3107706093       17.5666378905
  H         1.4648520523        3.7355537354       28.6553038705
  H         0.8607942910        5.1005965250       27.9289230286
  C         1.7301416086        5.5633428660       29.8372543818
  C         5.1302206801       -0.5661151687       32.8698236926
  H         6.8752566519        3.0779522810       18.9517846079
  H         5.9763287429        2.8545451533       20.5295109957
  C         5.4467261559        1.5249912578       18.9735703423
  H        11.3949986856        2.8051118659       22.1346951845
  H        11.5706779093        3.1447381191       20.4153818005
  C        12.7446611668        1.4763993880       21.1528346078
  C        10.0105092809        7.6935253934       17.4277864235
  C        10.2056671882        5.5094054914       16.3430563832
  H         2.5984229089        6.3022459460       29.9073667403
  H         0.8462821248        6.2014357532       29.8640967224
  C         1.8443987405        4.7726248261       31.0947573506
  H         5.1436966673       -1.6405492675       32.8286270865
  C         4.8305188535       -0.0518570675       34.1459868995
  H         5.3347788819        0.4990396490       19.3371263419
  H         5.8071130642        1.4136165463       17.8892752647
  C         4.1083072564        2.2735154135       18.9288027497
  H        12.6938747816        0.7517024557       21.9865221845
  H        12.6012501970        0.9328676845       20.1419081769
  C        14.0181009341        2.3264241805       21.2629398511
  N         9.6986818693        8.6874988784       18.4186459796
  C        10.3545845732        8.2940386573       16.2257831483
  C        10.5259363315        6.1327224164       15.1428289132
  H        10.1058469255        4.4223751635       16.3841748335
  H         1.9223770916        5.6162955897       31.8113375205
  H         1.0263670132        4.1503147643       31.2645175885
  H         2.7453315074        4.0816930187       31.1928064609
  S         4.3358987635        1.5082648229       34.5895771090
  C         4.7976928107       -1.0622153287       35.2650521935
  H         3.9051483766        2.7154898598       19.8924223621
  H         4.1628247901        3.1351313876       18.2334801347
  C         2.9741764132        1.2768304929       18.6621925562
  H        13.8097938792        3.1981094088       20.6194178862
  H        14.8465557467        1.8382222414       20.7014496167
  C        14.4119968224        2.6216598751       22.7153200658
  S        10.1058208038       10.1417722055       17.8463107210
  N        10.4120911170        9.6796868916       16.3300268055
  C        10.6240600320        7.5880306738       15.0185697812
  H        10.7418052067        5.5193387116       14.2974177229
  C         4.1553104454        0.8268052812       36.1495818128
  N         4.2089500531       -0.5317119647       36.3579315845
  O         5.0998559173       -2.2612104401       35.0659587553
  H         1.9661734615        1.7776154472       18.8053703561
  H         3.0185590069        0.6581499693       19.4666767221
  C         3.1223772888        0.3635589371       17.4209746469
  H        15.0343857199        3.5670424878       22.6614992412
  H        13.5140250438        2.8827374542       23.2685632777
  C        15.1535470329        1.5534733841       23.4625836835
  C        10.8886877664        8.3702545013       13.8425421348
  S         3.5986913602        1.7564295451       37.4515040052
  C         4.0367334178       -1.2807583054       37.6002879668
  H         2.9381594283        0.9858368120       16.5371802613
  H         4.1501895262       -0.0517610508       17.3163540378
  C         2.2582770965       -0.8578572725       17.3140550508
  H        15.2321960550        0.6923891302       22.7530351362
  H        14.6965261996        1.3428176508       24.4006532027
  C        16.5490032044        2.0263407669       23.7317763000
  H        10.6147031388        9.3810527472       13.8717894945
  C        11.3076203413        8.0601640430       12.5412073645
  H         3.3969491590       -0.6769780757       38.2465964175
  H         3.6197171950       -2.2919621723       37.4319642923
  C         5.4803155300       -1.4156047811       38.1647657824
  H         2.4149015120       -1.3687853414       16.3578184715
  H         1.2460353582       -0.4846384964       17.1397862919
  C         2.4650591683       -1.8722624771       18.4215935849
  H        16.6135128874        3.0469478610       24.1242230651
  H        17.0360984953        1.3905814610       24.4583683357
  C        17.3968944768        2.1324942317       22.4612559798
  S        11.8723066799        6.5576057917       11.9165853359
  C        11.3835393515        9.1261922308       11.5575813648
  H         6.0249114299       -0.4864370838       37.8862010113
  H         5.2867395918       -1.3118872987       39.2092439290
  H         5.9956909887       -2.4061339193       38.0535725395
  H         3.2108846919       -2.6049626161       18.0197096081
  H         1.4749573934       -2.2732085888       18.6746605054
  H         2.8186189658       -1.4036482255       19.3781179633
  H        18.3057393635        1.7925652622       22.7635348427
  H        17.5263177634        3.1530499199       22.1649031271
  H        16.9958887598        1.6175795432       21.6265328484
  C        12.3367262706        7.4679470954       10.4307369918
  N        12.1020149957        8.7686604850       10.4748512954
  O        11.1290774995       10.2973078752       11.8663855515
  S        13.0208108118        6.7914252936        8.9637841662
  C        12.4479473858        9.6652699914        9.3571301458
  H        12.6583659850       10.5910604779        9.8441906050
  H        13.3562941164        9.4522109839        8.8414821116
  C        11.3715882149        9.8499325868        8.2759290784
  H        11.0992595042        9.0087007801        7.6444166218
  H        10.3997323133       10.1689314956        8.6617617716
  H        11.7996810795       10.6583611190        7.6018514512
  H        20.6317896538       10.5073890516        3.7287725044
  C        21.6297042633       10.0586420414        3.8455276879
  H        21.4101117174        9.0038249229        4.0941101759
  C        22.3001877467       10.7098228377        5.0598322289
  C        22.4391117100       10.1436996346        2.5188638307
  C        21.2898880314       10.7128405420        6.2018084329
  H        23.2350352742       10.2776664324        5.4004982295
  H        22.6174789957       11.7532408261        4.8963012221
  H        21.6604163371       10.2464739213        1.7824915194
  H        22.9950019895        9.2611632529        2.3510192440
  H        22.9704795475       11.0935705510        2.3477831223
  C        20.9681206523        9.3903658212        6.8076527005
  H        21.6369760089       11.5195000436        6.8773644157
  H        20.3484779220       11.1157026390        5.7382586455
  C        20.3846805383        9.4677088350        8.1881867777
  H        21.8372975078        8.8381758738        6.9658991067
  H        20.3469824734        8.6615490550        6.1826970242
  C        19.1303200318       10.3759041505        8.2983468007
  H        21.1241389620        9.8538242296        8.8923749397
  H        20.1818744875        8.4456252128        8.5048924789
  C        18.0030379131        9.7918665752        7.4386118810
  H        18.8682083758       10.7321619538        9.3138436379
  H        19.4291920443       11.3326632872        7.7548636021
  C        16.7494151566       10.6107123456        7.2078972278
  H        17.6925624654        8.8120797146        7.7331785738
  H        18.3920442031        9.7122707564        6.4539665984
  C        17.0923628177       11.8820126421        6.4610748825
  C        16.3545554896       11.3608522228        8.4582620395
  C        15.6468060269        9.8199152086        6.5649394808
  C        16.8713353299       13.0226860435        7.2254178608
  C        17.6728685828       12.2653371884        5.2196387566
  C        16.3634457941       12.6977202069        8.5334309760
  C        15.8230044668       10.6726146150        9.5545204508
  H        15.9982869910        9.3661067993        5.6185300895
  H        15.3136979551        9.0033370393        7.1988067911
  C        14.4399146067       10.7675126328        6.1430964645
  S        17.0884548224       14.4888002768        6.3351594598
  C        17.8575485301       13.6072546835        5.0363314018
  H        17.8919087436       11.5168357202        4.5070792565
  C        16.0664110132       13.3049128751        9.7501361236
  H        15.6588172733        9.5933354712        9.5007948220
  C        15.4106071335       11.2664515995       10.6976390059
  H        14.6801219655       11.5987387923        5.5393675621
  H        13.9695112646       11.1931835352        7.0381441724
  C        13.3161106622       10.1295408932        5.3161637638
  C        18.2826138138       14.2533135413        3.7250384698
  C        15.5642847821       12.5659181710       10.8614417555
  H        16.3321702686       14.2676462310        9.9195205015
  C        14.9810130084       10.8578910253       11.9180922276
  H        12.4928393809       10.8634662570        5.4004011564
  H        12.9551718202        9.1594448108        5.7215492840
  C        13.6119744884       10.0529813360        3.7607664202
  C        18.1813943371       15.6560216013        3.4215700913
  C        18.5005719375       13.3492958459        2.5153219107
  C        15.1873066907       13.2363565411       12.1573037650
  C        14.8615404545       11.9430003399       12.8075016733
  S        14.7504880558        9.2447974996       12.6607395752
  H        14.0014912555        9.0632449882        3.5465218091
  H        14.4201494171       10.7595758447        3.3740597749
  C        12.2697426569       10.2167904133        3.0159972752
  N        17.9533291325       16.7038641511        4.3049330906
  C        18.3868440720       16.0937269573        2.1099464002
  C        18.7116070791       13.8560895201        1.2561578453
  H        18.3616118843       12.3347459851        2.5779795155
  C        13.8690849135       14.1502282523       12.0221891066
  C        16.3308914665       14.0156908425       12.9318336505
  C        14.6889250594       11.4368821115       14.0983589244
  C        14.4583657656       10.0945559929       14.2397852403
  H        11.7064067970        9.2884023628        3.1953051599
  H        11.6870503180       11.1105382429        3.4020077507
  C        12.4032617926       10.3865309831        1.4630302459
  S        17.8454796916       18.0779922509        3.5092286234
  N        18.1887330174       17.4944614496        1.9836231331
  C        18.6752731161       15.3051180452        0.9683492151
  H        18.8156180468       13.1222613852        0.5229341933
  H        14.0529289321       15.0910453763       11.5115992912
  H        13.6105699950       14.3828279008       13.0845605926
  C        12.5751666692       13.4188790503       11.4401007676
  H        16.8017312355       14.8816136232       12.4196734279
  H        15.9287503005       14.4297476791       13.8591015574
  C        17.5091968704       13.0750208294       13.2104009179
  H        14.6241893000       12.0386130187       14.9381327542
  C        14.0329169305        9.3126675714       15.5049509012
  H        13.2472977543       11.1013677255        1.2817891001
  H        11.5043474786       10.8476627052        1.0239883393
  C        12.6812015173        9.0728329956        0.6630233544
  C        18.7882344828       15.8544819429       -0.3622456473
  H        12.8267402708       12.9605921928       10.4992986297
  H        12.1136639383       12.6204607140       11.9958789023
  C        11.3423499579       14.3266827687       11.1948215050
  H        17.8858700012       12.6475514574       12.2602258265
  H        17.2953527906       12.2012979439       13.8286837769
  C        18.7049711701       13.8800398809       13.7913018138
  C        14.0059758177        7.9206045261       15.6881130641
  C        13.7301048893       10.1256963092       16.7034444198
  H        13.6743652505        8.7254304223        0.7849011236
  H        12.2349440109        8.2240323406        1.1994805579
  C        12.3585794567        9.1520924969       -0.8355774252
  H        18.4805168902       16.9189198366       -0.5042408207
  C        19.1573579919       15.3643228875       -1.5672042544
  H        11.5963657223       15.2459609026       10.6514158473
  H        10.8777060912       14.5869407134       12.1501728594
  C        10.3763268422       13.5829412466       10.2880538635
  H        19.1478484939       14.3923046238       12.8948220976
  H        18.5986437435       14.6649982063       14.4923815869
  C        19.8040215556       12.9880104628       14.3638267472
  N        14.4373986528        6.9572693689       14.8052314754
  C        13.5134035543        7.2918421016       16.8682824043
  C        13.2029518137        9.5093463325       17.8537465006
  H        13.8650539005       11.1840666349       16.7415744727
  H        13.1978861394        9.6938899772       -1.2978976624
  H        11.4444458849        9.6971913783       -1.0554886809
  H        12.3644815932        8.2279522443       -1.3901547488
  S        19.5092127423       13.7504886327       -2.0165682824
  C        19.2771531513       16.3402590828       -2.6522801911
  H        10.9135712719       13.4197453073        9.3702618927
  H        10.0269071018       12.6309705726       10.8198883310
  C         9.0450584252       14.2719650111        9.9462978657
  H        20.1568588738       12.2722729163       13.6040234050
  H        19.4636702437       12.4161374788       15.1701777999
  C        21.1715815652       13.6596725204       14.7621632181
  S        14.2110943070        5.4531558827       15.4062804945
  N        13.5193699222        5.8959952845       16.7918870270
  C        13.1476093377        8.0323929766       18.0124343262
  H        12.9827467819       10.0845353944       18.7226203417
  C        19.7886693540       14.3497294531       -3.6491907018
  N        19.6366265183       15.6831849887       -3.7954435574
  O        19.2554643446       17.5631331006       -2.6269397633
  H         8.7283723284       14.5975631683       10.8773939452
  H         9.2431196831       15.1648673323        9.3304703179
  C         8.0442427891       13.3209134875        9.3480692447
  H        21.7582167404       13.0194974128       15.4019047412
  H        21.7840573718       13.7888989543       13.8413455223
  C        21.0950955223       15.0248970137       15.5958100068
  C        12.8839482305        7.3224719899       19.1819431586
  S        20.0068365121       13.4526333511       -5.1507673551
  C        19.5369046138       16.4649606161       -5.1131542148
  H         8.3817843309       13.1494525766        8.2920222406
  H         8.0183040114       12.3408640333        9.7585589056
  C         6.5894462323       13.8066558817        9.3517795052
  H        21.6969384742       14.9395423620       16.5338390444
  H        20.0624000842       15.2959998148       15.7615492849
  C        21.6511151138       16.2310232541       14.8214704959
  H        13.0921246953        6.2782157014       19.2251320528
  C        12.4127925838        7.7118022276       20.3975299030
  H        20.0776717469       16.0339525648       -5.9201599188
  H        19.7771017225       17.5315621483       -5.0354179869
  C        18.0685694817       16.4911443571       -5.6573947348
  H         6.0021540174       13.2639802318        8.5925057032
  H         6.5028990634       14.8069983844        9.1168789019
  C         5.8899521528       13.4380421650       10.5728979920
  H        22.7155487880       16.1574091932       14.8420757423
  H        21.3296738875       16.1454131998       13.7786457950
  C        20.9985914029       17.5305753383       15.2521840778
  S        11.8995449027        9.3090495312       20.8750550962
  C        12.3610467829        6.7609707019       21.4651424481
  H        17.8909020270       17.3016280627       -6.3407134755
  H        17.4022380327       16.7332640445       -4.8782777872
  H        17.7640763019       15.5894898151       -6.1063544874
  H         4.8830434472       13.8593163755       10.3282388188
  H         5.9305837117       12.3752766944       10.8005578395
  H         6.2620388840       14.0130429089       11.4277498282
  H        20.6017125613       18.0667648722       14.3846925940
  H        20.0968233856       17.2984307268       15.7886817384
  H        21.7547399880       18.1211742060       15.9154692194
  C        11.2954526786        8.4988327110       22.3937530700
  N        11.6520525407        7.2029068169       22.5356212847
  O        12.9265689305        5.6749288621       21.3595165995
  S        10.4817615008        9.3749179956       23.6962407926
  C        11.4595404020        6.2971963657       23.6518047490
  H        11.3305633470        5.2930792290       23.2587617003
  H        10.4876885304        6.5403618394       24.1502817166
  C        12.6245732991        6.3538626401       24.6040597224
  H        12.4076790867        7.1065900502       25.3875465304
  H        13.6082108843        6.6023161716       24.1528711063
  H        12.8722907304        5.3612236011       24.9652748716
