352
 i =    67300, time =    67300.000, E =        24.9210768376
  H        10.4612799334        4.6315125858       31.5613273279
  C        10.6993905603        5.5695242460       31.9569994368
  H         9.7501235728        5.9063402519       32.4107554042
  C        11.1343295072        6.5613120345       30.8871334266
  C        11.7428817396        5.4255102404       33.0612024121
  C        11.8921966449        6.0132475376       29.7374414157
  H        10.2489684916        7.0218504079       30.5216105604
  H        11.7244132616        7.3364267786       31.3044576828
  H        11.7888629005        4.3812491223       33.3970154820
  H        12.7401678446        5.6702534940       32.7027884981
  H        11.4697440283        6.2069199766       33.8241367264
  C        11.1997176844        5.0101923760       28.7484713808
  H        12.8380738524        5.5829409015       30.1122178209
  H        12.1943800309        6.8242391473       29.0617305306
  C        10.4303540074        5.6994038156       27.6297165839
  H        11.8584958219        4.3179381502       28.2695491332
  H        10.4936425302        4.5187235318       29.3956107554
  C         9.3057287831        4.8656259452       26.9435628999
  H        11.0609816376        5.8805432266       26.7685138808
  H        10.0630213650        6.6972193761       27.9356470568
  C         8.3536674351        5.6441084592       26.0689490986
  H         9.8153494604        4.1356516477       26.3286052170
  H         8.6791800140        4.2937043888       27.6880971550
  C         7.3624219475        4.8657251051       25.2071142853
  H         7.7963649408        6.4019661038       26.5923863562
  H         9.1110680128        6.0496431077       25.3345842787
  C         6.9795741700        3.5354148507       25.8254278005
  C         7.9389018371        4.1161376221       23.9895508547
  C         6.1949588380        5.7828282445       24.5580179606
  C         7.2724045773        2.4388631691       25.0438530433
  C         6.3435390448        3.1770439757       27.0352961415
  C         7.7742387000        2.7971297388       23.7949657355
  C         8.5296379872        4.7885624678       22.8820173408
  H         5.8302504254        5.2896247092       23.6240587782
  H         6.5636803372        6.7852584159       24.2242188227
  C         5.0809668615        6.1291308956       25.5638767732
  S         6.8653468343        0.9295044128       25.8897042694
  C         6.2898502559        1.8485269975       27.2447689181
  H         6.0717672326        4.0167936790       27.6431629179
  C         8.0477891156        2.1722009697       22.5872623153
  H         8.6676661481        5.8174328390       23.0005883060
  C         8.7698100235        4.1578731549       21.6888391296
  H         4.9108431988        5.4088820181       26.2826452358
  H         5.4819328612        6.9208964688       26.1336288264
  C         3.6688340956        6.4189312793       25.0009451745
  C         5.9535522808        1.2646220684       28.5907279478
  C         8.5174097629        2.8312445536       21.4777556631
  H         7.6587356430        1.1951049000       22.4694014801
  C         9.1968417411        4.4960299740       20.3875919384
  H         3.3665575953        5.5499307506       24.3614085825
  H         3.6678542848        7.2505271050       24.2208868212
  C         2.5403018591        6.7502328443       25.9440731688
  C         5.8827465173       -0.1127103549       28.8717380622
  C         5.6561402024        2.1829250295       29.6692170197
  C         8.7643781436        2.1723477430       20.1654279554
  C         9.1114344901        3.4664795533       19.4481934797
  S         9.5154106821        5.9999825167       19.6889192339
  H         1.8622627283        7.4148275786       25.5382156662
  H         2.9352445947        7.2619073396       26.8503122380
  C         1.8865320569        5.4296307680       26.4622240354
  N         6.2181058382       -1.1084776723       27.9875221786
  C         5.6736288533       -0.5917457081       30.1143251380
  C         5.3913729091        1.6965278719       30.9402918932
  H         5.9345265316        3.2046447558       29.5230054171
  C         7.4048024454        1.5071026050       19.6244900398
  C         9.9681317014        1.1690361375       20.3044798975
  C         9.5022854695        3.9247408562       18.1948401676
  C         9.6723431851        5.2567376257       18.1834385554
  H         1.3854674370        4.8375579279       25.7187445183
  H         2.6299522513        4.6509017710       26.6896048477
  C         1.1214983564        5.5968854999       27.8284087747
  S         5.9289122697       -2.5435761132       28.7223668568
  N         5.5940586366       -1.9861259459       30.2049789921
  C         5.3831400291        0.2224222864       31.2235129223
  H         5.2738423611        2.4196663384       31.6831642203
  H         7.1863978621        0.8000119464       20.3970725743
  H         7.6737090796        0.9646472410       18.7225629308
  C         6.2979220732        2.5297377081       19.3901120337
  H        10.0358584901        0.6362255916       19.3726278992
  H         9.8135853622        0.4423311081       21.1110588024
  C        11.3787636368        1.8943328523       20.3855340656
  H         9.5862675158        3.3334592002       17.3500807451
  C        10.0879992039        6.1405435889       17.0462701825
  H         0.4963018825        4.7747312659       27.9880291017
  H         0.4488883026        6.5082174374       27.8245826070
  C         2.0878891503        5.7227371661       29.0499981139
  C         5.1030591569       -0.4937431774       32.4885766527
  H         6.6798451091        2.9538658486       18.5053829464
  H         6.1939802982        3.2740896350       20.1688004444
  C         4.9558822419        1.8906678571       19.0751643078
  H        11.1938933522        2.7714058636       20.9800637731
  H        11.7393154161        2.2623329150       19.3977067193
  C        12.4736478664        1.0871460489       21.1025121684
  C        10.2903903601        7.5378987725       17.0746462752
  C        10.3327436293        5.5046005958       15.7387365598
  H         2.3749961085        4.6507933156       29.2068640069
  H         2.9465747221        6.3939559371       28.8151071315
  C         1.4485427568        6.0579958040       30.3685797700
  H         5.2483137184       -1.5259540141       32.4248989081
  C         4.8056266124        0.0062261052       33.7409059396
  H         4.2169247850        2.5892930189       19.4796608841
  H         4.9984735443        0.9678353663       19.6384096198
  C         4.6298087035        1.6004141705       17.5372240419
  H        12.1697338766        0.7371275585       22.0819639758
  H        12.7479263026        0.2216482104       20.5589628567
  C        13.6860800697        1.9082471880       21.5024271686
  N         9.9809253567        8.4228492257       18.1411598224
  C        10.6965893851        8.2537249664       15.9444761281
  C        10.8738206457        6.1884665318       14.6334567372
  H        10.2815854661        4.4126894040       15.5705364170
  H         0.9654966765        5.2175060857       30.7789532430
  H         2.1638645161        6.4065363406       31.1499092164
  H         0.8084950283        6.9189135384       30.2849903203
  S         4.5315006754        1.6608939498       34.1749552244
  C         4.6851113370       -1.0296289146       34.8547075854
  H         4.9111930026        2.4834102267       17.0295656742
  H         5.2324603936        0.8295721106       17.1437642531
  C         3.1667629338        1.5382041920       17.2543193238
  H        13.6121663718        2.3662427934       22.4673912326
  H        13.8216553762        2.6198987543       20.7355673512
  C        14.8889655164        1.0586446360       21.7375826161
  S        10.3475012626        9.9402903401       17.6991567167
  N        10.8967470599        9.6460352258       16.1802276137
  C        10.9774233103        7.6630921680       14.6871316772
  H        11.0948120297        5.7765628282       13.7105511198
  C         4.2898950817        0.9726060347       35.7806085902
  N         4.3438131910       -0.3334068264       35.9401020552
  O         5.0358414932       -2.1923229937       34.6820091972
  H         3.0708892727        1.2589693325       16.1716442220
  H         2.6940014353        2.5223166193       17.4107778102
  C         2.3294250104        0.4449452791       17.9941949504
  H        14.8319822492        0.3294383642       22.5558536362
  H        15.0314251113        0.4323589180       20.9006883239
  C        16.0685205968        1.9956868321       21.9096431002
  C        11.3215565894        8.4941842643       13.5684995790
  S         3.9992297476        1.9553922567       37.2467411505
  C         4.3112881398       -1.0122830160       37.2272682473
  H         2.3479016283        0.6809769946       19.0993296695
  H         1.2894212924        0.5531741443       17.6406476578
  C         2.7933343383       -1.0467600367       17.7828008297
  H        15.8739425690        2.8319225431       22.5199136012
  H        16.2728735481        2.4267790770       20.9280780630
  C        17.3196299577        1.2306689497       22.3794901826
  H        11.5482215189        9.5374411576       13.7936901895
  C        11.7516198415        8.2040878599       12.2695067392
  H         3.5390135097       -0.5684666190       37.8605269425
  H         4.0210695075       -2.0415707069       37.1142228523
  C         5.7577776404       -1.0888324324       37.9281743644
  H         2.8338595493       -1.6194491822       18.6328761340
  H         3.7845817051       -1.0774447888       17.4447869641
  C         1.8827590450       -1.7083859111       16.7527773976
  H        17.0798179944        0.7802777103       23.3048670905
  H        17.6803372665        0.4004202556       21.7067191782
  C        18.3984256114        2.2530368789       22.7210366594
  S        12.1237744506        6.6645586690       11.5027389183
  C        11.9302043151        9.4008142463       11.3310994118
  H         5.7857880804       -1.8862806088       38.6482402537
  H         6.6144555949       -1.2351080054       37.2890433772
  H         5.9949658288       -0.1625248028       38.5181523224
  H         0.8767650245       -1.8031864555       17.1954751731
  H         2.2024053038       -2.6859553797       16.5458205020
  H         1.9136859242       -1.1317503020       15.9103725271
  H        18.4913678331        2.3303870787       23.8315224476
  H        18.1370401843        3.2142137841       22.3604780698
  H        19.3934626493        1.8755871034       22.4094691827
  C        12.5205084506        7.6196251764       10.0681100079
  N        12.4254580534        8.9763276749       10.1306939146
  O        11.7459368717       10.5693364055       11.6358685700
  S        13.2379666569        6.7713284018        8.7021158377
  C        12.4430995560        9.7669581643        8.9028215110
  H        12.7900651738       10.7832179788        9.0881889321
  H        13.2223627910        9.3841817836        8.2471405218
  C        11.1079807058        9.7760871985        8.1863669905
  H        10.6173925430        8.7759318730        7.9041639330
  H        10.2983545130       10.3296484226        8.7119470348
  H        11.0564560419       10.2192895498        7.2290284221
  H        22.2965172047        9.0643353394        3.2085546221
  C        22.5700959603       10.1016172480        3.0785406299
  H        23.4762200000       10.0831487687        2.5299016969
  C        22.8415793108       10.7693459981        4.4991869364
  C        21.3474443022       10.7250209509        2.3400327291
  C        21.7363099946       10.7571445987        5.5249789039
  H        23.7013835831       10.3078938807        4.9949189600
  H        23.1250058353       11.8077661073        4.4279292780
  H        21.4964047368       11.7834987627        2.2431331953
  H        20.4552381320       10.4999684165        2.9286036864
  H        21.2640488656       10.2799995560        1.3494710968
  C        21.3151677703        9.3711035824        5.9705212033
  H        22.1208132516       11.4121767186        6.3573935127
  H        20.8901145777       11.3317158368        5.2872837261
  C        20.5911028656        9.3262947383        7.3402895673
  H        22.2429287352        8.8182351425        6.0923303214
  H        20.6822091293        8.9116109049        5.2004700799
  C        19.4081300553       10.2892394546        7.4648579716
  H        21.2557141927        9.4496108766        8.1871205183
  H        20.2913228358        8.3111415357        7.5631219077
  C        18.1835455485        9.7511381805        6.7242266102
  H        19.2302419626       10.4600257196        8.5070295852
  H        19.6663174196       11.2961083844        7.0415363038
  C        17.0724893916       10.8816162899        6.6636290304
  H        17.8165806684        8.7570617944        7.0646341737
  H        18.4271167477        9.5045390272        5.7001766609
  C        17.4551232556       12.2375774383        6.0530932206
  C        16.7088592819       11.6152883827        7.9228290468
  C        15.8390477283       10.4416459234        5.7574822286
  C        17.1646322073       13.3401439978        6.8287197124
  C        17.9156841439       12.6361351475        4.7837826577
  C        16.8062213762       12.9677710919        8.1110642072
  C        16.2319962869       10.8337890695        8.9670723395
  H        16.1574216837       10.1216368042        4.8269616457
  H        15.3425622380        9.5646693385        6.1798531139
  C        14.6374752073       11.4353160599        5.6380054481
  S        17.5796808814       14.8229487639        6.1030514251
  C        18.0898570668       13.9663913077        4.7048234019
  H        17.9817128568       11.8784221828        3.9924089010
  C        16.4346726069       13.5097943542        9.3239814127
  H        16.1245690284        9.7357355209        8.7905392626
  C        15.9510205330       11.4275184818       10.2007322940
  H        14.9193886651       12.4083609587        5.2795780445
  H        14.1720187471       11.5115240664        6.6094179296
  C        13.5233887030       10.8653603850        4.7089338168
  C        18.5508161939       14.6228917230        3.3745825300
  C        16.0139523084       12.7496288456       10.4116986091
  H        16.4425661512       14.6196236853        9.3755605768
  C        15.5095866670       11.0363185015       11.4733015225
  H        12.5257496618       11.4006414088        4.9000838877
  H        13.4529894004        9.7595801636        4.9275624365
  C        13.6912951682       11.0622444841        3.2437762365
  C        18.5492962979       15.9982644493        3.0816815054
  C        19.2004358693       13.8184706674        2.3629050387
  C        15.5589315075       13.3891410183       11.6649985902
  C        15.2864958172       12.0698236202       12.3383283860
  S        15.1818768251        9.4698356416       12.2100572783
  H        14.8046906659       11.1691771800        2.9672794106
  H        13.4648070943       12.1146270835        3.0675732338
  C        12.9417240990        9.9957082713        2.3962240819
  N        18.0783452209       17.0096942419        3.9847417872
  C        18.8773466860       16.4857803282        1.8305509759
  C        19.6469246558       14.2992996026        1.1455887366
  H        19.3083222514       12.7520108048        2.5596656736
  C        14.2813338869       14.2422446492       11.4608724557
  C        16.7081154997       13.9506115829       12.4161884874
  C        14.8719301699       11.6373071498       13.5796506909
  C        14.7790842407       10.2947844091       13.6545113788
  H        12.6560565866        9.2047933585        3.0912819546
  H        12.1410599223       10.5639995651        1.9862764724
  C        13.7696494416        9.6195503827        1.1998967644
  S        18.1859751224       18.4305716782        3.2203332002
  N        18.5744064238       17.8699051132        1.7523718729
  C        19.4040587323       15.7299940629        0.7955888126
  H        20.1888678608       13.7531698499        0.4572838172
  H        14.6060314724       15.1387143195       11.0108341133
  H        13.9169522089       14.5603152085       12.5070142291
  C        13.1933717068       13.5232426542       10.5844160031
  H        17.0720047985       14.7772603827       11.8621120907
  H        16.4592829703       14.4572060464       13.3199060952
  C        17.9072099747       13.0839391699       12.5246874014
  H        14.7114912361       12.4099862692       14.3489836577
  C        14.4650353893        9.5691819758       14.9043719357
  H        13.2769058706        8.6952504173        0.8391938827
  H        14.7565311186        9.3147912255        1.4888522460
  C        13.8976353986       10.5986683114        0.0095958692
  C        19.5177070742       16.3137234592       -0.4700233789
  H        13.6059963478       13.2482070548        9.5926017629
  H        12.9519889088       12.6084994820       11.0421069058
  C        11.8894462695       14.2576650340       10.4868168707
  H        18.1027193877       12.5352700696       11.5974518443
  H        17.7825725632       12.3824996022       13.3338926167
  C        19.1639642843       13.9438434323       12.8938550728
  C        14.3956811264        8.1294715945       15.0397814694
  C        14.2622535571       10.2520056945       16.1974817143
  H        13.9261752766       11.6623269420        0.3116569273
  H        14.8546891858       10.5057543168       -0.5079384745
  C        12.8078458607       10.4318334776       -1.0524905500
  H        19.5554313719       17.3942050773       -0.4649312451
  C        19.7764613911       15.7993143303       -1.7555036335
  H        12.0658670943       15.0132644280        9.7049921854
  H        11.5457702979       14.5974654439       11.4055653226
  C        10.7673916021       13.3884127129        9.9534457873
  H        19.4757378169       14.5540294657       12.0530020056
  H        18.7675831867       14.6131124001       13.7043145650
  C        20.3821661270       13.1438786381       13.3792410733
  N        14.4579145543        7.2664800145       13.9209342389
  C        14.0414250609        7.4148078768       16.1851440365
  C        13.9647080812        9.5598215922       17.3625256869
  H        14.2328454063       11.3685024487       16.1903388487
  H        12.5973083923       11.4219965602       -1.4219023453
  H        11.8857891330       10.1504394007       -0.5713986383
  H        12.9825908659        9.7720010180       -1.9020465292
  S        20.0277236501       14.1575118590       -2.0518961334
  C        19.7324014329       16.7304202395       -2.8651319562
  H        11.2412613039       12.7926645463        9.1045641959
  H        10.5757355042       12.7402260735       10.8014361413
  C         9.5221242363       14.1776959350        9.5412819208
  H        20.9183140314       12.9620508061       12.3975942930
  H        20.0485181300       12.1827828125       13.6777541360
  C        21.3424225691       13.8004507901       14.4172810909
  S        14.3495063856        5.6890338774       14.4212275358
  N        14.1229625367        5.9992525665       15.9946542239
  C        13.7704154485        8.0485359994       17.3844528562
  H        14.0549867749       10.1066850005       18.2738301932
  C        20.2673127066       14.7217006118       -3.7322959228
  N        20.2318504280       16.0690536663       -3.9104719156
  O        19.4330890807       17.9247551851       -2.8151267805
  H         9.1078161699       14.7485898641       10.3450515863
  H         9.7155241742       14.9926112362        8.8221630359
  C         8.3666910678       13.2771031775        9.0721817428
  H        20.7422042139       14.3755117878       15.1296585935
  H        22.0535931273       13.1633790141       14.9381729709
  C        22.2575981525       14.8704808192       13.6961087348
  C        13.4837847309        7.2574113535       18.5707463332
  S        20.8030458406       13.7478391346       -5.1618515974
  C        20.3807164068       16.7331397556       -5.1761414147
  H         8.6584761104       12.3834992183        8.5165298351
  H         7.7937473418       12.8227887682        9.9739175563
  C         7.1900950487       14.0106078346        8.3065929673
  H        21.5783558782       15.5087272249       13.1314772155
  H        22.9504805241       14.3076853241       13.0372697293
  C        22.9462526222       15.8201476961       14.6872983803
  H        13.5000807088        6.2133710445       18.3846445894
  C        12.9892062730        7.5917462446       19.8408851054
  H        21.0612833157       16.2115265810       -5.8380903243
  H        21.0053338690       17.6782880903       -5.0449603750
  C        19.0789182772       16.9596075116       -5.9244244098
  H         6.8857048575       13.4398059317        7.3791292467
  H         7.4258261903       14.9844091198        7.8183378540
  C         5.9833567217       14.1975581146        9.3010249961
  H        22.8477632684       15.4133352332       15.6825387643
  H        23.9817726751       15.9428858052       14.3514821643
  C        22.2480456599       17.2589359752       14.7647762905
  S        12.6419345394        9.1345004807       20.4436333401
  C        12.6950818957        6.4495958352       20.7636161558
  H        18.8176550909       16.1958960630       -6.6767027894
  H        19.2275183871       17.8869903594       -6.3565963940
  H        18.1752212565       16.9076966351       -5.2217649131
  H         5.6580976592       13.2215198497        9.6807440016
  H         6.2866254668       14.8345542389       10.1066737499
  H         5.2597522473       14.8361519022        8.6950746461
  H        21.1812700121       17.1910855558       14.6181248371
  H        22.5186571178       17.7618314436       15.7297274645
  H        22.5078072825       18.0368600460       14.0457266389
  C        11.9702516949        8.2959640415       21.8503360670
  N        11.9944162914        6.9582913188       21.8297513687
  O        12.9639550231        5.3019017317       20.5147214573
  S        11.5054058141        9.0370731412       23.3248448320
  C        11.7937578103        6.0480600011       22.9799780282
  H        11.4060976783        5.0403261651       22.6385036214
  H        11.0604882463        6.2859713004       23.7379904056
  C        13.0840565996        6.0136254062       23.8004084541
  H        13.4151714834        6.9853781928       24.2149837600
  H        13.8868243248        5.6654748604       23.1927837234
  H        12.9217599306        5.3726158658       24.6394544198
