352
 i =    79000, time =    79000.000, E =        24.9667819714
  H        10.8579338053        7.7499836653       31.2840408715
  C        11.4126244899        6.8770613410       31.5986331329
  H        12.2405941109        7.2854554016       32.1269312704
  C        12.1443520102        6.0349663356       30.5118811274
  C        10.6098541670        5.9946101460       32.5177962882
  C        11.1397631276        5.2785068041       29.7123681982
  H        12.7157513710        6.6589281137       29.8332446339
  H        12.8229755388        5.3257938190       30.9711204725
  H        11.0099750195        4.9809238152       32.7087758527
  H        10.6286265257        6.3385294777       33.5360880575
  H         9.5795308096        5.9948151367       32.2786250222
  C        10.3436861819        6.2460277979       28.7706899788
  H        10.4487698456        4.7825499249       30.4029870570
  H        11.7170791112        4.4997099674       29.1602085811
  C        10.6311625789        5.9666606370       27.2727301623
  H         9.2962213231        6.3669469590       29.0919107818
  H        10.6427242747        7.2726516587       28.9768427978
  C         9.4912566002        5.1128751101       26.7502850466
  H        11.5206760561        5.4733439615       27.1485201300
  H        10.6341252124        6.8572151953       26.7136331172
  C         8.3194923269        5.9440813532       26.1507915341
  H         9.8011909523        4.3401472602       26.0482305864
  H         9.0941957112        4.4723716723       27.5353851772
  C         7.2973558214        5.0141143916       25.3930279789
  H         7.9339325484        6.4412301881       26.9809488663
  H         8.6406471840        6.6581922779       25.4545165277
  C         7.0606966686        3.7321903834       26.1557303964
  C         7.8231947530        4.2618184225       24.2382271388
  C         6.0260526266        5.7782475455       24.8376365073
  C         7.4364275637        2.6290651709       25.4332743882
  C         6.6377282853        3.4330707228       27.4395325429
  C         7.7732415106        2.9271373791       24.1798623759
  C         8.2672935562        4.9558845161       23.1638454596
  H         5.5507496541        5.2001655354       24.0627187223
  H         6.4403932959        6.6696219019       24.4326112250
  C         5.0212394209        6.0215037985       25.9196833378
  S         7.1524029609        1.1700565282       26.3229759605
  C         6.5148864716        2.0657579006       27.6785770646
  H         6.4601032353        4.2492247779       28.0785730091
  C         8.1194935134        2.3538643148       23.0158452144
  H         8.3702369330        6.0183459672       23.2551379847
  C         8.5377531458        4.3190376436       21.9698555401
  H         4.7810752697        5.1126611687       26.5041973921
  H         5.5452930185        6.6333970934       26.6162881815
  C         3.7668201660        6.6454581075       25.3978441226
  C         6.1239054626        1.4290750353       28.9840992376
  C         8.4480970166        3.0187889773       21.8435286366
  H         8.1779084727        1.3608893810       23.1382980615
  C         8.8968434010        4.6942359449       20.7290747409
  H         3.4174534414        5.9822790177       24.6376768914
  H         3.9300354538        7.5554172532       24.8569627370
  C         2.7580136540        6.8780346029       26.4584444452
  C         6.1463205357        0.0526540031       29.2761420924
  C         5.7848186402        2.2798372759       30.0952310745
  C         8.7938314668        2.2880054015       20.5264063845
  C         9.0324958814        3.6357722901       19.8525162886
  S         9.0317352828        6.1688705772       19.9043334944
  H         1.9308127661        7.4287564856       26.0840314070
  H         3.2061855130        7.4373667997       27.2719685995
  C         2.2636755666        5.4603978852       27.0514644041
  N         6.5906895675       -0.9738712044       28.4078632609
  C         5.8693788064       -0.4795960224       30.5585808329
  C         5.4511266859        1.7804646334       31.3351326593
  H         5.7566243984        3.3679118111       29.9672677530
  C         7.5833751647        1.5817090556       19.9433486927
  C         9.9789481143        1.3808129792       20.6199353775
  C         9.3547591201        4.0732980989       18.5697906382
  C         9.3732323809        5.4456299639       18.4145665418
  H         2.5467526627        4.7299814227       26.3370203716
  H         2.7897239626        5.2772096448       27.9569524621
  C         0.7473484764        5.4664485629       27.3286618099
  S         6.4092588230       -2.4268115450       29.1420669293
  N         5.9152163328       -1.8978751458       30.6380836860
  C         5.5181565357        0.3061927360       31.6086160191
  H         5.2321490923        2.5247299450       32.1188982541
  H         7.3123786127        0.8117968834       20.6091086056
  H         7.8345074291        1.0302375742       19.0912445006
  C         6.3782381768        2.4640502982       19.6126775160
  H        10.1491327503        0.8233770322       19.6736134346
  H         9.6811581580        0.6081596175       21.2882191042
  C        11.2193377084        2.1087117920       21.0903569660
  H         9.6351655626        3.2979025334       17.8420303407
  C         9.8329054223        6.2432148860       17.1414534855
  H         0.2272666792        4.8673772897       26.5238321218
  H         0.3417855983        6.4457282756       27.3845063503
  C         0.4179271995        4.9133077635       28.6549117374
  C         5.2366435176       -0.2772229494       32.8659862769
  H         6.6117480573        3.0844314317       18.7472780129
  H         6.1856255299        3.1863930934       20.3768255205
  C         5.1150105959        1.7348538668       19.3452812761
  H        10.9139028034        2.7525629073       21.9531262754
  H        11.4849523481        2.9798437978       20.3908689136
  C        12.3502048186        1.1914426296       21.5048776073
  C         9.9296832168        7.6807089181       17.0233555040
  C        10.2657933792        5.5002468413       15.9302949989
  H        -0.6769454809        4.7264634478       28.6547032813
  H         0.9265406488        3.9298996285       28.8324696598
  C         0.9044703228        5.9204329910       29.7081979159
  H         5.6157861650       -1.2241405394       32.8881516283
  C         4.7478051322        0.1003722246       34.0675004013
  H         4.3683584775        2.4781056260       19.7253809994
  H         4.9549550646        0.8726893693       20.0160171932
  C         4.9442118905        1.4124774927       17.8225268905
  H        12.0971899993        0.4964988666       22.3273313680
  H        12.8653158438        0.6293559781       20.6577146643
  C        13.4232370042        2.2066108084       21.9789140801
  N         9.4566303438        8.4919577403       18.0430285983
  C        10.3539077348        8.4116386318       15.9579309424
  C        10.8359009965        6.2278089876       14.8832497614
  H        10.2592576721        4.3773864856       15.8577209124
  H         0.7106222966        6.9801977982       29.5212891637
  H         0.2322196942        5.7489156016       30.5058196647
  H         1.9515076388        5.9440472038       30.0762297026
  S         4.3995997799        1.7278457389       34.4529934458
  C         4.8650851144       -0.8683617220       35.2010667913
  H         5.1691527532        2.2247520387       17.1887565064
  H         5.5692921112        0.5905312747       17.4887938248
  C         3.6115963178        0.7457639429       17.5017292233
  H        13.0679900773        2.8006655488       22.8495835936
  H        13.7323436916        2.8581346871       21.1627827295
  C        14.6202710347        1.4292798050       22.4783216780
  S         9.3685368089       10.0895901284       17.4816797844
  N        10.1689527036        9.8193786391       16.1165745827
  C        10.8964167638        7.7335986566       14.8260702468
  H        11.2926844302        5.6193293474       14.0829668634
  C         4.4133564669        1.1675668712       36.1399947619
  N         4.6156879272       -0.1907674373       36.3267114611
  O         5.1153281658       -2.1196675949       35.0796321405
  H         3.3761878391        0.7437916741       16.4106187116
  H         2.8444065214        1.4024994989       17.9567900824
  C         3.3730915083       -0.5502064504       18.1739989472
  H        14.2984169456        0.5881510316       23.0792313673
  H        15.1180511577        0.8952427033       21.5841530556
  C        15.6933166063        2.3350791068       23.2310090596
  C        11.2871071514        8.5124278427       13.6709627994
  S         4.0654175330        2.1016681328       37.5537830823
  C         4.8789370181       -0.9167039162       37.5902111948
  H         4.0917943322       -1.3236770538       17.9518303047
  H         3.4401096302       -0.4890168646       19.2630192616
  C         1.9556203971       -1.0460400431       17.9603790521
  H        15.2666068790        2.8077529181       24.1818303124
  H        16.0397583205        3.2503799212       22.5954472161
  C        16.8623110843        1.5558359336       23.6192363225
  H        11.0548911400        9.5399587616       13.9269669659
  C        11.7072984524        8.2043234087       12.4140168922
  H         4.1962971392       -0.6248539428       38.4052914844
  H         4.5982568141       -1.9705981517       37.5155077972
  C         6.3584389792       -0.7980915014       38.0256574863
  H         1.1007615986       -0.3462334711       17.9896423248
  H         1.7611408767       -1.7980443033       18.7638453118
  C         1.8850125448       -1.8085649760       16.6346595357
  H        17.3470175796        2.0780603272       24.4124691209
  H        16.5483977591        0.5447046789       23.9070137038
  C        17.9065381811        1.5175359996       22.5487253847
  S        12.2407902716        6.6954254326       11.7752629238
  C        11.7476284056        9.3194410984       11.3801557404
  H         6.5262774339        0.0598529029       38.7335025783
  H         6.5638918986       -1.7031162964       38.5762741473
  H         7.1173894419       -0.4834488532       37.2983084995
  H         1.9941720470       -1.1641515256       15.7053536124
  H         1.0023522610       -2.3827511244       16.4416795027
  H         2.5584971028       -2.6235568770       16.6239757881
  H        18.2634265124        2.5512722748       22.1792812122
  H        17.5654968140        1.0381020689       21.6625543866
  H        18.7199078772        0.9519723287       22.9279888889
  C        12.4028163392        7.5053881835       10.2632883604
  N        12.1736940673        8.8574826549       10.2191081166
  O        11.5451528104       10.4802056031       11.6831517660
  S        13.4331618088        6.9642209354        8.8790972679
  C        12.2108720156        9.8116920495        9.0530944695
  H        12.5435325034       10.7724927665        9.3043043621
  H        12.9458338620        9.5433632156        8.2634573597
  C        10.8618306570        9.8840011362        8.4180484237
  H        10.8160954722       10.2568199008        7.4201935024
  H        10.4405634506        8.9021500860        8.3129511094
  H        10.1531761769       10.5180091586        8.9380721449
  H        21.4682563392       10.8477403922        2.9686272271
  C        22.1492905696       10.0991544915        3.0329012289
  H        21.5504677206        9.1514366792        3.0528747263
  C        23.0648187177       10.0102038012        4.3407490867
  C        22.8594487183        9.9391597161        1.7525570271
  C        22.2884941578       10.1964140000        5.6310785296
  H        23.5139507084        9.0537626821        4.2858713490
  H        23.8081355525       10.8116693091        4.2598434247
  H        23.5088507772       10.7812653536        1.4302946078
  H        22.0320721389        9.9522007585        0.9703090479
  H        23.3676163072        8.9834505892        1.6762188866
  C        21.7166745901        8.8706236219        6.1694041817
  H        22.8429402109       10.7020544983        6.3812415444
  H        21.5101597843       10.9086267309        5.3336412764
  C        20.5086775801        9.1210940467        7.1637450631
  H        22.4907925331        8.3118178824        6.6895704309
  H        21.4418839479        8.1664092711        5.4048265768
  C        19.2566010627        9.7471596463        6.5576705572
  H        20.8020429851        9.7989706769        8.0356994695
  H        20.2063176534        8.1754057712        7.6229852710
  C        18.2550152197        9.8604620745        7.7444070115
  H        19.3691445629       10.7021502433        6.0876045318
  H        18.7734747054        9.0557804313        5.7945346809
  C        16.9111251668       10.6455876344        7.2894228679
  H        18.7363043290       10.3472470265        8.5413696580
  H        17.8897032729        8.9367395647        8.2037701029
  C        17.2145554212       12.0175125440        6.5881199582
  C        16.4121606970       11.4201715006        8.4484184026
  C        15.8090643875        9.8173299924        6.5824777650
  C        16.8913054294       13.1287513304        7.3648228671
  C        17.6259748689       12.3802385084        5.3106353634
  C        16.3990941921       12.7605668734        8.5805586428
  C        15.8429966655       10.6762610986        9.5188273783
  H        16.1139772416        9.1235972933        5.9060684474
  H        15.2417404674        9.1902715218        7.3175817399
  C        14.6412794221       10.6423020447        6.0377238228
  S        17.1599861642       14.6238136958        6.5400602449
  C        17.5662378382       13.7493031059        5.1099109935
  H        17.6631807934       11.6587033712        4.5433037635
  C        15.9041742231       13.2889605302        9.7109863418
  H        15.8565779037        9.5858038848        9.4164735271
  C        15.4682362179       11.2907086227       10.6653549637
  H        14.9811976749       11.5063785224        5.4405155206
  H        14.1191883384       10.9768418311        6.9333935080
  C        13.6889197843        9.7637582804        5.2709202764
  C        17.9892507051       14.4028291735        3.8195516108
  C        15.3818886298       12.6101493723       10.7447201379
  H        15.8121128804       14.3535178762        9.8395049193
  C        15.0020062020       10.8346505936       11.8903516336
  H        12.8089435883        9.5714306278        5.9195505264
  H        14.0380285457        8.7174113247        5.0880645300
  C        13.4015310168       10.3308930236        3.8650564266
  C        17.9176065255       15.8134223252        3.4567007500
  C        18.4598499040       13.5830796389        2.6592342130
  C        14.8966911329       13.2633316594       11.9721688210
  C        14.7779068340       11.8927719433       12.7176024703
  S        14.9233740550        9.3677633795       12.6377728506
  H        14.1044577968        9.8428174567        3.1606470583
  H        13.5294552158       11.4384419036        3.7959447992
  C        11.9075372207       10.0139857894        3.4811140478
  N        17.6449906541       16.8518546291        4.3703555963
  C        18.2730464778       16.3497242710        2.2335690447
  C        18.7386301227       14.0975665903        1.4175545900
  H        18.4920178297       12.4575345278        2.6758675448
  C        13.6915994412       14.1582340470       11.7693816828
  C        16.0772170904       14.0865736156       12.6521131477
  C        14.3830513258       11.5124953371       14.0090722097
  C        14.3845154004       10.1238405654       14.1197907239
  H        11.3876514935        9.4987121032        4.3369581705
  H        11.3695247372       10.9150291054        3.4445711546
  C        11.6583536138        9.1151883018        2.2585681858
  S        17.7554394045       18.3046382547        3.6338390066
  N        18.1576899503       17.7759943680        2.1342703545
  C        18.6310622572       15.5471630657        1.1047908578
  H        19.0482116559       13.5059017481        0.5761460863
  H        13.8302120573       14.6559115239       10.7751343816
  H        13.6763195165       14.8919669433       12.5706390025
  C        12.4499328893       13.3240586002       11.5700293019
  H        16.3460874751       15.0090359426       12.1755683922
  H        15.7208279988       14.3644712025       13.6402010464
  C        17.3304167450       13.2271951265       12.8784478494
  H        14.0946016457       12.2683027788       14.7675818940
  C        14.0444838738        9.3344281474       15.3184994907
  H        10.5958421962        9.2852667079        1.9317631380
  H        11.8333972709        8.0664772402        2.5304979957
  C        12.5152741564        9.4804901842        1.0559464392
  C        18.7795397740       16.2155458565       -0.1468593828
  H        12.6424809501       12.5473818393       10.8297917592
  H        12.1447306052       12.8441753083       12.4234986593
  C        11.1757752626       14.1343509506       11.1404066049
  H        17.5621853275       12.5158977847       12.1105516238
  H        17.0950215756       12.6765465379       13.7475586004
  C        18.4959769654       14.0617638009       13.1357894985
  C        13.9967622585        7.9087782689       15.4917521457
  C        13.6183048458       10.1167337628       16.4882480488
  H        13.1561086715       10.2532959191        1.2827438004
  H        13.1895609159        8.6830438489        0.7475182081
  C        11.6970617892        9.9539043767       -0.1186878637
  H        18.5501722554       17.2818558704       -0.1344267205
  C        19.2261815914       15.8156837322       -1.4226949699
  H        11.5044188420       14.9584222827       10.4986208945
  H        10.7133157228       14.5330180554       12.0759170995
  C        10.2710842368       13.0675961826       10.4202681132
  H        19.0189744347       14.3513625765       12.2127048813
  H        18.1907300413       14.9735740053       13.6409606852
  C        19.6026131130       13.4075962763       14.0143279685
  N        14.2214370666        6.9720969885       14.4613456075
  C        13.5583284615        7.3062792826       16.6559481316
  C        13.2199263302        9.4840161342       17.6559078836
  H        13.6607989484       11.2021630974       16.4690356143
  H        11.6119475512       11.0589771657       -0.2334064016
  H        10.5962396558        9.6419736305       -0.1611713654
  H        12.2257465075        9.5737455391       -0.9747523253
  S        19.6087587444       14.2116620567       -1.8517368358
  C        19.2847248906       16.7573715780       -2.4908284609
  H        10.7512078572       12.7101390281        9.4920934773
  H        10.0745999037       12.1987074191       11.0517139199
  C         8.9764625098       13.7491554721       10.0887540946
  H        20.0834910019       12.6041209492       13.4683316782
  H        19.1023066232       12.8536710961       14.7760444034
  C        20.5511990103       14.5068004062       14.5863136390
  S        14.1433800382        5.5263724035       15.1208875783
  N        13.7002055411        5.9268239854       16.5716769019
  C        13.1620139722        8.0466226315       17.7684107446
  H        13.0268722717       10.1082242145       18.5824318017
  C        19.6660233160       14.7912036907       -3.5055807797
  N        19.5413195077       16.1082952337       -3.6289547256
  O        19.0689797676       17.9690612839       -2.3260139566
  H         8.3018777615       13.8149834459       10.9256366570
  H         9.1994101165       14.7004847735        9.7495955627
  C         8.3068713623       12.8479812862        9.0348285867
  H        19.9262154916       14.9809974547       15.4052382396
  H        21.2369086509       13.8367262289       15.0198404419
  C        21.2418050343       15.4342705733       13.5473116026
  C        12.8377264692        7.2881074244       18.9585519255
  S        20.0502652761       13.8458319732       -4.9894618673
  C        19.6905279361       16.8121364385       -4.8789939138
  H         8.9534931760       12.6672437560        8.1270057882
  H         7.8464343166       11.9554605743        9.4843975789
  C         7.0030843384       13.4418820872        8.4940629291
  H        20.5172149027       15.9464518781       12.9019500345
  H        21.8140955402       14.8255640927       12.8484656238
  C        22.1930713701       16.5113757789       14.1702197410
  H        12.9415204019        6.2467235247       18.8695933764
  C        12.2643451217        7.5008831862       20.1852897217
  H        20.5229459598       16.4131126091       -5.4435449765
  H        20.1469465624       17.8362781693       -4.6014862967
  C        18.4326787502       17.0219793895       -5.6413609395
  H         6.6249184008       12.8342633712        7.7698320217
  H         7.2611783066       14.4350777424        8.0896341547
  C         5.8892891391       13.7496567846        9.5824149077
  H        22.9613469590       15.9948021400       14.7269281554
  H        22.6138605387       17.0813446306       13.3612336992
  C        21.4020864415       17.4363629253       15.1036612215
  S        11.7298987104        9.0224889868       20.7611368364
  C        12.2473265533        6.3238295252       21.0807272103
  H        18.2738833217       16.3491217201       -6.4855781784
  H        18.2959108267       18.0432480741       -5.9891787610
  H        17.5900977441       16.8527964386       -4.9801347586
  H         6.1207786637       14.5590614424       10.3107065475
  H         4.9531035472       14.1253932771        9.1049041915
  H         5.6716750893       12.7947257796       10.0521024166
  H        21.9913008013       18.3657139462       15.2145841271
  H        20.3759569604       17.7939351687       14.6792181413
  H        21.2329966709       17.0462526044       16.0789000413
  C        11.2723537082        8.0909853577       22.2363749750
  N        11.6258524306        6.7478690092       22.2085102539
  O        12.6894969056        5.1905350655       20.8563737577
  S        10.6336297222        8.6367493620       23.7844373932
  C        11.6637286158        5.8534163328       23.3981497366
  H        11.7342859240        4.8008119181       23.0418148943
  H        10.7996639930        5.8726347313       24.1177259640
  C        12.9100003671        6.0374083328       24.1834648156
  H        13.6658031816        5.2237095384       23.8995348386
  H        12.7735682063        5.9693529562       25.2599474988
  H        13.3739376634        7.0566493733       24.0361863199
