352
 i =    43100, time =    43100.000, E =        25.0738304137
  H        11.7890878372        7.1730099709       32.7049605737
  C        11.3598369072        6.3216444057       32.1743612727
  H        12.1097657356        5.9215318654       31.4702387485
  C        10.1156159439        6.7165277924       31.3794377208
  C        11.0106628137        5.3151986870       33.2587621461
  C        10.5217974935        6.8869175914       29.9093419660
  H         9.4105812710        5.9072897965       31.3720763932
  H         9.6763093154        7.6009290328       31.8329748413
  H        11.8147597736        4.9598058198       33.8640615156
  H        10.1544545723        5.7620006599       33.7648587520
  H        10.5995489306        4.4865851558       32.7803166141
  C        10.4571690421        5.6154407887       29.0039457152
  H        11.4407291287        7.4216991473       29.6578132359
  H         9.7126103401        7.5757369843       29.5349290691
  C        10.9308089933        5.7011731167       27.5369213853
  H        11.0826985024        4.9806188656       29.5800872861
  H         9.5286993630        5.0550131028       29.0425860796
  C        10.0839419702        4.9282462364       26.5242205411
  H        11.9247138736        5.2084797340       27.5661169218
  H        11.0117484861        6.7917720166       27.2776679242
  C         8.7516482665        5.7140106379       26.2355596076
  H        10.5283772888        4.7146578932       25.5203976742
  H         9.8608665802        4.0516534719       26.9961438700
  C         7.5884941528        5.0387990491       25.3958169979
  H         8.3909841194        5.9681285711       27.1933980050
  H         9.1271191114        6.6706609741       25.8790974971
  C         7.1703265525        3.6638316472       26.0091995891
  C         8.0261630051        4.3696978112       24.1197535870
  C         6.3414566580        5.9833151159       25.1566099925
  C         7.5072867991        2.6033185004       25.1727971525
  C         6.5207910635        3.2674627710       27.1981820060
  C         8.0014676364        3.0223169264       23.9869620656
  C         8.5514157246        5.0614423165       23.0218015331
  H         6.7941311944        6.6207191309       24.3979469183
  H         6.0313105881        6.4351907968       26.0767875094
  C         4.9676440021        5.4359043311       24.4431251817
  S         7.2519876142        0.9851898153       25.9149847138
  C         6.5037951371        1.8601475296       27.3026183887
  H         6.4416259216        4.0003361664       27.9679879685
  C         8.4236170223        2.4740553027       22.7973515082
  H         8.6875606475        6.1464638447       23.0305301810
  C         9.0212077025        4.5221444541       21.8364112186
  H         5.2410024214        4.9772579115       23.5046098584
  H         4.8535296753        4.5303977263       25.0347143275
  C         3.8109084368        6.4470241617       24.4017816338
  C         6.0789878983        1.1359352487       28.5676090469
  C         8.9270338151        3.1850800025       21.7137663295
  H         8.5753978267        1.3757826836       22.6832768448
  C         9.5135622422        4.9165067729       20.5654835640
  H         2.9892238284        6.1422411867       23.7406057132
  H         4.1664483101        7.4064681200       23.9907225345
  C         3.2094181815        6.6530706497       25.7317372811
  C         6.1559420968       -0.2235396244       28.8411521613
  C         5.4542203305        1.9248592153       29.6319079963
  C         9.5062435471        2.4672699103       20.5052566045
  C         9.7808032565        3.8288141280       19.7374197935
  S         9.6214275218        6.3905899975       19.7444703224
  H         2.5104747950        7.5003090374       25.8559227120
  H         4.0341266065        6.7748272734       26.4342918311
  C         2.4831745249        5.3362670180       26.1676546307
  N         6.4360508934       -1.2207288560       27.9221023667
  C         5.8402973122       -0.7619282099       30.0960936334
  C         5.1027442448        1.3952541674       30.8631553711
  H         5.2589102087        2.9892762589       29.4965832397
  C         8.5538343418        1.5398190835       19.7202281610
  C        10.7641741915        1.6702873462       20.7550302941
  C        10.2555065766        4.2596706719       18.4698834212
  C        10.1887055223        5.5853298786       18.3106980693
  H         1.9675395008        5.0102327661       25.3213455173
  H         3.2949798582        4.6886430103       26.3578184994
  C         1.4584210481        5.5156371260       27.3228175317
  S         6.3922618708       -2.6332424726       28.6592030609
  N         5.9775128650       -2.1773049859       30.1434981794
  C         5.3901685077        0.0214191257       31.1779693669
  H         4.7141630630        2.1740185037       31.5184517331
  H         8.4354030691        0.6116301666       20.2626687198
  H         9.0604705235        1.3035307727       18.8009868865
  C         7.1373654030        1.9472640288       19.3905815338
  H        11.0819817266        1.0610655632       19.8806539637
  H        10.5307943934        0.9464048252       21.4938306935
  C        11.8834524817        2.5138970790       21.2897871776
  H        10.4946541387        3.5647177387       17.7035166758
  C        10.3966532578        6.3498290864       17.0377904774
  H         0.7936432448        4.6365516322       27.3818251569
  H         0.8828703102        6.4302900794       27.3502120606
  C         2.1357436894        5.6268010442       28.6512082762
  C         5.1705288715       -0.5744190509       32.4880330552
  H         6.9857673103        2.9669724817       19.6324958874
  H         6.5278179297        1.3433829973       20.0764451784
  C         6.6423683909        1.7805953425       17.8825045550
  H        11.7650466600        3.0235125807       22.3087052572
  H        12.0831643501        3.3123198072       20.5520603926
  C        13.2929627783        1.9860683316       21.2954662828
  C        10.3680355432        7.7403040371       16.8845559852
  C        10.6258910659        5.5431274543       15.8331127348
  H         2.8024434279        4.7947700858       28.8149027280
  H         2.8678680473        6.4600159063       28.6494996885
  C         1.1383015509        5.8127502657       29.8579508498
  H         5.5236287662       -1.5619527591       32.5878036282
  C         4.7020855107       -0.1004034526       33.6434623244
  H         6.9797836979        0.8246719629       17.5404888660
  H         7.2099729251        2.4593376641       17.1828162853
  C         5.1902047943        2.0945077800       17.6076365179
  H        13.4002046238        1.0769987896       21.9529087192
  H        13.5324027051        1.6677965336       20.2178321955
  C        14.3478750120        3.0369337529       21.7312500503
  N        10.0187581406        8.6615224248       17.8975550346
  C        10.5861393299        8.3298074623       15.6722541337
  C        10.8414834987        6.1792003018       14.6205258976
  H        10.5613990289        4.4757145225       15.8531064051
  H         0.4475274451        4.9213283983       29.8024809014
  H         1.6379630061        5.7887898313       30.8604671570
  H         0.3932084321        6.6931757307       29.8688252036
  S         4.1357928030        1.5134681048       34.0272661028
  C         4.6943351650       -1.0307974655       34.7777350055
  H         4.8148372034        2.8462128786       18.1608088439
  H         4.9280274637        2.4150859970       16.5981889435
  C         4.3871054200        0.8444392186       18.0765473124
  H        13.9337888661        3.9737079153       21.5835471590
  H        15.1790714762        3.1244655010       21.0076893078
  C        14.8534173451        2.8475517870       23.1143944318
  S        10.0540088639       10.1981271571       17.2609099222
  N        10.5429049669        9.7211235167       15.7919911820
  C        10.8778268832        7.6166664404       14.5240465624
  H        11.1057969600        5.5116448761       13.7350878687
  C         3.9787988581        0.9837495733       35.6905059050
  N         4.1435660839       -0.3672569431       35.8466242549
  O         5.1106502041       -2.2354505234       34.7051135295
  H         3.3814258983        1.0854799739       18.4175636472
  H         4.8675759758        0.2291134034       18.7986404012
  C         4.4148971983       -0.3022935030       17.0181966896
  H        15.3734696213        3.7756392275       23.5154168342
  H        13.9937226624        2.6490361543       23.7766448487
  C        15.7153483380        1.5952106802       23.2803346339
  C        11.1124636889        8.3901877903       13.3750547111
  S         3.4289747593        2.0272026066       37.0676639931
  C         4.1167474350       -0.9720758321       37.2141155356
  H         4.0460732156        0.0995507317       16.0733688068
  H         5.4068056347       -0.6786575355       16.8150739778
  C         3.4310692304       -1.4548091028       17.5130679956
  H        15.7726694682        1.1450721048       22.2595860105
  H        15.2513817251        0.8727720235       23.9115075946
  C        17.0759869774        2.0551198954       23.7263723582
  H        10.9189073664        9.4645452291       13.4617484376
  C        11.6055733337        8.0278799568       12.1646841043
  H         3.4125132336       -0.5785308180       37.9068894111
  H         3.8739949539       -2.0089017843       37.1571673540
  C         5.4872452029       -0.9274545711       37.8626523724
  H         3.3498646661       -1.4341800561       18.5678250953
  H         3.8576375755       -2.4156597423       17.2215459909
  C         2.0453860302       -1.3605549161       16.9311652545
  H        17.1064037770        2.7948552703       24.5069857658
  H        17.5187459403        1.1057356900       24.0745772908
  C        17.9671816442        2.6137988176       22.5297474202
  S        12.2154610041        6.5209525298       11.5905547262
  C        11.5026441494        9.0229239742       11.0597939205
  H         5.5098455763       -1.0027475100       38.9116120487
  H         6.1713038784       -1.6620043724       37.4231959073
  H         6.0228758442       -0.0371629144       37.5960588518
  H         1.2842065463       -1.8388487521       17.5630007445
  H         1.9818103376       -1.7420239655       15.9067488785
  H         1.7672416738       -0.2698601356       16.9314646817
  H        19.0185878083        2.8531525730       22.8111887243
  H        17.5728021341        3.5430950403       22.0657411237
  H        18.1248816168        1.9106638390       21.7248746528
  C        12.3231580359        7.2138434311       10.0073242139
  N        11.9664195748        8.5018998112        9.9238620499
  O        10.9553265013       10.1119530911       11.2725534385
  S        12.8553800835        6.4160652107        8.5082964317
  C        11.8566577088        9.4201420074        8.7373901033
  H        11.9356572874       10.3756939899        9.0469507748
  H        12.7484743717        9.3056971312        8.0690027518
  C        10.5546392919        9.1608158362        8.0429547681
  H        10.0584344800       10.1565671349        8.0507479893
  H        10.7296000663        8.6973157248        7.0433361536
  H        10.0040301527        8.4502721772        8.6152115368
  H        20.3660023427       10.8463360995        3.9596010569
  C        21.1209789871       10.0562433504        3.6141033390
  H        20.7104596976        9.0711699108        3.8365594804
  C        22.2651339375       10.2185936059        4.5264863601
  C        21.4719362397       10.1776764725        2.1525474481
  C        21.9091252909       10.6352727710        5.9864072839
  H        22.8816379160        9.3219423524        4.4422966094
  H        22.7611398248       11.0373737024        3.9446381024
  H        20.7497704538        9.6738929295        1.4939383056
  H        22.4310191501        9.6431090415        2.0024105231
  H        21.5505352401       11.1766030657        1.8733436428
  C        21.2405457660        9.4557282698        6.7917289939
  H        22.8176068621       10.8651543289        6.3871549408
  H        21.3395695120       11.5736208522        5.9657574662
  C        20.3079302962        9.9249456781        7.8868793030
  H        22.0548773245        8.9694265810        7.3644147201
  H        20.7466609031        8.7724639155        6.1257305814
  C        19.0587084489       10.7420968951        7.5189973566
  H        20.9908814319       10.5734904082        8.5249985400
  H        19.9731474493        9.0219881604        8.4078732596
  C        17.8094927418        9.9865444332        6.9608591927
  H        18.7955038750       11.3140161399        8.3636978049
  H        19.3789230689       11.3346210318        6.7093492122
  C        16.5926896185       10.9688906623        6.7263101975
  H        17.5194153619        9.2340729786        7.7481673328
  H        18.0238125001        9.5916215127        5.9756945335
  C        16.9099590467       12.2823640697        6.0558370963
  C        16.2119904160       11.6940968149        7.9642148393
  C        15.4298056627       10.1129052709        6.0642156084
  C        16.8430750511       13.3811603484        6.8517336168
  C        17.3387960785       12.6533945068        4.7672243333
  C        16.2665126496       13.0303076394        8.0664244150
  C        15.7566351352       11.0218483740        9.0889833334
  H        15.8661735434        9.5268968701        5.2734041320
  H        15.2180563140        9.2347407849        6.6861442214
  C        14.2001386258       10.9188251450        5.6461056167
  S        17.2847403236       14.8680380339        6.0980422228
  C        17.6328257793       13.9742136911        4.6455560224
  H        17.4935450454       11.8541811830        4.1023584243
  C        15.7767910910       13.6142722799        9.2246633698
  H        15.6879099006        9.9595115425        8.9963743906
  C        15.3699169403       11.6512353184       10.2369916347
  H        14.4257552577       11.8379606825        5.1489867104
  H        13.7440031839       11.2304230111        6.5687616451
  C        13.0728701308       10.2269056961        4.8768215097
  C        18.1733565458       14.5172278692        3.3634140439
  C        15.2987947265       12.9728403878       10.3455126899
  H        15.8416001117       14.6574181261        9.4192781054
  C        14.9668685929       11.2413191739       11.4857980058
  H        12.3328590338       11.0661487448        4.8238713937
  H        12.6953189993        9.3104241812        5.4179006822
  C        13.4397275268        9.9818467100        3.4269863519
  C        18.1992064231       15.8648824612        3.0074328225
  C        18.5290276824       13.5471673301        2.3095277716
  C        14.8636869291       13.6680567167       11.4990931172
  C        14.6485028932       12.3342404784       12.2514535350
  S        14.7605437389        9.8152759982       12.3833160220
  H        14.2262871374        9.2458207051        3.4537775520
  H        13.9094684321       10.9114997253        3.0530737226
  C        12.2913116404        9.5048452319        2.4949452253
  N        17.9404899355       16.9058689756        3.9558937734
  C        18.4261884811       16.3183238071        1.7525129818
  C        18.7970252458       14.0372639553        1.0517546296
  H        18.4046951636       12.5088360512        2.3109631662
  C        13.5009367570       14.3742471464       11.1539865664
  C        15.9886487814       14.4146322498       12.2709542267
  C        14.3745671047       11.9905034178       13.5883916226
  C        14.3868418594       10.6322299594       13.7732060324
  H        11.4663895848        9.0923290339        3.0014354428
  H        11.8742717719       10.3186198534        1.9431842168
  C        12.8956446713        8.6191990978        1.4010436262
  S        17.9140736263       18.3458280926        3.1361382826
  N        18.3399022487       17.7495602405        1.6595360097
  C        18.7411223131       15.4663424035        0.6671416389
  H        18.9781482258       13.3412174141        0.2422931281
  H        13.5913328031       15.0335899538       10.2510635187
  H        13.1882862008       15.1149009423       11.8732938063
  C        12.3600391302       13.3669547578       10.8998431136
  H        16.3973993588       15.1767830071       11.5926150230
  H        15.5381009683       14.9510545373       13.0934972490
  C        17.1823982415       13.5680520530       12.8350529378
  H        14.1893548242       12.8176044117       14.2608798733
  C        14.1636075443        9.8970880211       15.0538823560
  H        12.1290246295        8.0218539283        0.8743417164
  H        13.5235072822        7.8048580254        1.8716561954
  C        13.7384481982        9.4162242107        0.3736823140
  C        18.9185903683       16.0479988429       -0.6141927506
  H        12.7099065492       12.6653631203       10.1500114909
  H        12.0351354854       12.7363393507       11.7371527552
  C        11.1546155524       14.1589771093       10.5348568159
  H        17.5819091187       13.0378447688       11.9494162906
  H        16.7808934994       12.8484812486       13.5808630068
  C        18.3229753679       14.3935392540       13.4085416740
  C        14.1512741333        8.5140955642       15.2430255027
  C        13.7279787519       10.6986770832       16.2518520623
  H        14.0451212201       10.4647978820        0.6783415398
  H        14.6316284719        8.8625593372        0.3964310688
  C        13.1434240544        9.5219948088       -0.9880275882
  H        18.7385055583       17.1454413973       -0.6137338993
  C        19.2121759133       15.5625851859       -1.8535629577
  H        11.3236407451       14.8589244644        9.6709149484
  H        10.7096994001       14.7503475121       11.3345483941
  C        10.0752770452       13.2430856315       10.0108304731
  H        18.7171340735       15.1017667551       12.7525930620
  H        17.8558775395       15.1609110345       14.0695525318
  C        19.3905559114       13.5890660691       14.1616039505
  N        14.3781346688        7.6288832586       14.2356598322
  C        13.7754814989        7.8907480684       16.4361424871
  C        13.6312682076       10.1134003921       17.5394211901
  H        13.6274869679       11.7228232635       16.1706443721
  H        13.9338353370        9.5038498306       -1.7061505995
  H        12.3599857301       10.2553225312       -1.1097011401
  H        12.5580495390        8.6070274267       -1.1729523521
  S        19.4103164851       13.8797389768       -2.2851984252
  C        19.2830039556       16.4609125062       -2.9978451504
  H        10.4633789916       12.4472958598        9.3901327773
  H         9.6298341403       12.7489625482       10.9209168906
  C         8.9866792397       14.0309877202        9.2785877669
  H        19.3887857909       12.6227273693       13.7449179671
  H        19.0148925894       13.4839191595       15.1806268571
  C        20.7942798598       14.0725241881       14.1761564273
  S        14.1157721669        6.1254665208       14.8526532055
  N        13.7194888307        6.4398923595       16.3516472081
  C        13.4469833316        8.6089162903       17.6178554914
  H        13.4463328256       10.7753476076       18.3562965367
  C        19.5075932923       14.4327722455       -3.9721999623
  N        19.5949404342       15.7858529175       -4.1123225959
  O        19.1140235015       17.6803106059       -2.9162433992
  H         8.5665452600       14.6705635671       10.0136682929
  H         9.3730982833       14.6509152399        8.4296336224
  C         7.9635954424       13.0572736603        8.7193896381
  H        21.3639674626       13.4021799168       14.8010598884
  H        21.3406591339       14.0395393766       13.1999571918
  C        20.8293381440       15.4726033388       14.6674168541
  C        13.1404904128        7.8966950168       18.7950023137
  S        20.0768066645       13.4125097741       -5.2734254147
  C        19.7749087400       16.5008136950       -5.3708579578
  H         8.5583163673       12.5465259177        7.9239899221
  H         7.6258764410       12.3419373082        9.4742140075
  C         6.7084741948       13.7852433483        8.1588877029
  H        21.4179433472       15.5741283401       15.5926473731
  H        19.8087185820       15.7416229546       14.9942317100
  C        21.6123007569       16.3661257413       13.6706713616
  H        13.3720092815        6.7962650048       18.7986965839
  C        12.5609354894        8.3365925345       19.9508686658
  H        20.2624196379       15.9087092694       -6.1837930564
  H        20.2673640816       17.4765570991       -5.1857311587
  C        18.4518535314       16.7101678814       -5.9652244940
  H         6.5111581330       13.3376332861        7.1874397519
  H         7.0005769104       14.8370044697        7.9991255446
  C         5.5711141998       13.7003665280        9.1158669314
  H        22.4408207167       15.8587223159       13.2788309659
  H        20.9346986618       16.5622008554       12.8637627228
  C        21.9305500567       17.6419993488       14.3631620526
  S        11.8948464310        9.8578131641       20.2454875217
  C        12.4098194655        7.3688004173       21.0898110552
  H        18.0859121168       17.7162839325       -5.6733518586
  H        17.7274158736       15.9829138105       -5.6053374661
  H        18.6005737112       16.6875807139       -7.0332415252
  H         5.8174024977       14.0958956064       10.0402411924
  H         4.6480879048       14.2546151319        8.9161131186
  H         5.2688734861       12.6665121707        9.3585923857
  H        22.3209109531       17.4508390223       15.3312901672
  H        22.8072069775       18.0915485617       13.9149809731
  H        21.0270691035       18.2660651042       14.4790886831
  C        11.4277057871        9.3314427709       21.8478221870
  N        11.6982389646        8.0275341099       22.0730476359
  O        12.7893666017        6.2014508798       21.0713079891
  S        10.8054981829       10.3282188431       23.2340123964
  C        11.5373832826        7.4298129560       23.3770587241
  H        11.3812658065        6.3336082038       23.2050441995
  H        10.6188783438        7.8321396722       23.9268679674
  C        12.8385191478        7.6413918036       24.1958920510
  H        13.6306418603        7.1225683763       23.8175313665
  H        12.6732543703        7.1379392944       25.1581841196
  H        13.0501550059        8.6630639462       24.3192100043
