352
 i =    56000, time =    56000.000, E =        25.1558608906
  H        11.9794870936        5.0212370295       32.5072292152
  C        11.0492195488        5.4670290984       32.2663229443
  H        10.2438206808        4.6907426136       32.1347597552
  C        11.1718040193        6.3243396811       30.9916160655
  C        10.5826509963        6.3149017244       33.4774947284
  C        11.6201927835        5.5708044470       29.7649202963
  H        10.1513969255        6.7138125379       30.9342024335
  H        11.7253596696        7.3108002104       31.0792464178
  H         9.5860397470        6.7376832885       33.3573630302
  H        10.6201779969        5.6750445434       34.3582350144
  H        11.3336664782        7.1731188500       33.5850764714
  C        10.5291701572        4.9906900070       28.8758057751
  H        12.3338588261        4.8237975558       30.0582870473
  H        12.2190882530        6.2083289060       29.1480913042
  C        10.7341616341        5.0144194667       27.3635079456
  H        10.3437273156        3.9843004662       29.3167712053
  H         9.5517660383        5.5028634352       29.1158911766
  C         9.5863400220        4.3644014590       26.5348303885
  H        11.7158021151        4.5225610687       27.1150945182
  H        10.9646019517        6.0084436315       26.9501118648
  C         8.5201340287        5.3008284243       26.1030741574
  H         9.9335603450        3.8702298375       25.6452429650
  H         9.1393760916        3.5377173551       27.1690053797
  C         7.2094212583        4.6204812467       25.5242324277
  H         8.3557510508        5.9627168643       26.9443363401
  H         8.8051737083        6.0745676259       25.3547230808
  C         6.8875852202        3.3032397107       26.2919836154
  C         7.5364323616        3.8515353444       24.3310351466
  C         5.9440340226        5.5711430183       25.4536469716
  C         7.0418739557        2.1411576974       25.4842492292
  C         6.4566198763        2.9842266728       27.5960737147
  C         7.4516704913        2.5229678863       24.2469002317
  C         7.9448301220        4.5724759641       23.2200627035
  H         6.1534479701        6.3629352053       24.7231927115
  H         5.7350918668        6.0655556552       26.4357683720
  C         4.6825148690        4.8643216235       25.0604133918
  S         6.6696403136        0.6904416090       26.3162871527
  C         6.3068318491        1.6105446421       27.7531269226
  H         6.3746867580        3.7990410674       28.2860009737
  C         7.8791487760        1.8978086246       23.0765101298
  H         8.0856272013        5.6626354965       23.2790294170
  C         8.3127551504        3.9972768289       22.0540004773
  H         4.9060614471        4.3084605777       24.1632983392
  H         4.4022178838        4.1086194641       25.8565362748
  C         3.5464490426        5.8234303032       24.7364004418
  C         5.8875863613        0.9246947535       28.9892351660
  C         8.2716685402        2.6466496084       21.9580716165
  H         7.9482593346        0.8060585535       23.1701944324
  C         8.7782793361        4.4286936665       20.8678882829
  H         2.8812446719        5.3885033063       24.0314198192
  H         3.8535186566        6.8063938771       24.2498944985
  C         2.8070026804        6.2227805325       25.9795526378
  C         5.7248899076       -0.4590066355       29.2614906956
  C         5.3196777510        1.7816382891       30.0750782889
  C         8.7074729822        2.0326859715       20.6336256934
  C         9.0146084776        3.3800743261       20.0008196054
  S         9.0905430691        5.9564228272       20.2388709138
  H         2.1980269161        7.0728403984       25.6257296385
  H         3.5903842818        6.6073794185       26.6821039484
  C         1.9334933884        5.1123827842       26.5597774682
  N         6.0032890651       -1.4642644063       28.3582738666
  C         5.4205559384       -0.9441010054       30.5274395006
  C         4.9017045020        1.3802314650       31.3498006606
  H         5.2081774013        2.8235283136       29.7972930120
  C         7.5720767146        1.3886199818       19.8236511483
  C        10.0405239258        1.1880706754       20.6616715323
  C         9.4763384821        3.8685059789       18.7608229314
  C         9.6293014562        5.2219157679       18.7492661006
  H         1.1146270284        4.7578288487       25.9861496411
  H         2.5644372613        4.2342999362       26.7528285600
  C         1.4278991865        5.3606920428       27.9380143027
  S         6.0371963194       -2.9178963922       29.0997249815
  N         5.6268013467       -2.3231079878       30.6403936610
  C         5.1154941818       -0.0668046872       31.6195393636
  H         4.4982876440        2.1580586141       31.8887720365
  H         7.5667065332        0.2583885424       20.0124778675
  H         7.8724163101        1.6194156707       18.8563081593
  C         6.1633948518        1.9425897110       19.9682490710
  H        10.2545911505        1.0928901956       19.6378301019
  H         9.7834446334        0.1951810921       21.1255285134
  C        11.2757119307        1.8088235627       21.2681949560
  H         9.7793636480        3.1724702048       17.9933778517
  C         9.9219800049        6.0479759959       17.4926563454
  H         0.5176029729        4.7327196673       28.1196744009
  H         1.2497413120        6.4273522039       27.8469762204
  C         2.4596680150        5.1691875471       28.9632956763
  C         4.7106889103       -0.6481888804       32.8248855191
  H         6.3253544095        2.9632340122       20.0030806582
  H         5.6089303266        1.5139547825       20.7475929456
  C         5.4110799073        1.7586427865       18.6607454719
  H        11.0906233576        2.0788481375       22.3077967741
  H        11.6775695928        2.7184453582       20.8087622591
  C        12.3584937050        0.7672937326       21.4509739622
  C         9.7442431173        7.4409568803       17.2411937859
  C        10.6041181434        5.3508279276       16.3424706940
  H         2.7802308884        4.0892924766       29.0545395046
  H         3.3256812354        5.8165807022       28.6499250523
  C         1.9417627103        5.4665237401       30.3320325943
  H         4.5121775059       -1.6777033619       32.8127948689
  C         4.5649308851       -0.0818975783       34.0766484150
  H         5.5790953050        0.7053736535       18.3702643458
  H         5.8928329723        2.2080139737       17.8323292756
  C         4.0438513404        2.2650832496       18.7648151274
  H        12.0688695910        0.2566630088       22.3499061339
  H        12.3799115302        0.1185859370       20.5704009566
  C        13.7427679916        1.4149039779       21.4228414756
  N         9.3251899179        8.3978333043       18.1814586311
  C        10.0223000054        8.0799930199       16.0388388138
  C        10.8437839267        5.9503701344       15.1477696860
  H        10.8439194238        4.3045627799       16.3803562620
  H         1.5368396168        4.6096180481       30.7907283449
  H         2.6398525647        5.8794939528       31.0829057035
  H         1.2187505105        6.2112926024       30.2129861652
  S         4.2436693508        1.5878943964       34.4240189046
  C         4.3281250791       -1.0380698319       35.1662871211
  H         3.7341225627        2.9652207290       19.5702610399
  H         3.8878095732        2.8844894871       17.9232012622
  C         2.9289451003        1.2244207640       18.8900165240
  H        13.8200794575        2.3347944876       20.7866909002
  H        14.3888408010        0.6923670398       21.0695810278
  C        14.2225709668        1.7179529259       22.8661672494
  S         9.4991208545        9.8485847918       17.6011812639
  N        10.0080998544        9.4833296498       16.1375561022
  C        10.5207585158        7.4287235209       14.9032291368
  H        11.1665960820        5.3919410073       14.2922894031
  C         4.0774930785        1.0087764786       36.1319080304
  N         4.1437181094       -0.3365930801       36.3181622909
  O         4.5146327317       -2.2460601816       35.0864655589
  H         2.0496592718        1.8423295658       18.7233230129
  H         2.9254514489        0.8867472693       19.9427293146
  C         2.8217636285        0.0975191383       17.8970660386
  H        13.5224215980        2.3508176656       23.4118683731
  H        14.4123806414        0.8664996214       23.5172329412
  C        15.5109547794        2.5341858952       22.9154201283
  C        10.7499272275        8.1146170950       13.6448703122
  S         3.8472967690        2.1147136504       37.4575963353
  C         4.0187873678       -1.0897733928       37.5830307664
  H         2.5381652143        0.4784077928       16.8686380675
  H         3.7478845032       -0.4590895756       17.8024895998
  C         1.7887536575       -0.8847732586       18.4901230310
  H        15.9295937191        2.7855509816       23.9586841698
  H        15.1527000199        3.4674886995       22.4148542753
  C        16.6715460292        1.8282864154       22.0866795852
  H        10.3515882364        9.1197894436       13.6597739929
  C        11.3152498548        7.7612551455       12.4035376236
  H         3.3053534997       -0.6851671312       38.2439695646
  H         3.6079689588       -2.0958343924       37.4714003050
  C         5.3131091126       -1.4098725105       38.3509744343
  H         0.9102732988       -0.2509457904       18.6570121732
  H         2.1811772832       -1.2562248484       19.4180963046
  C         1.3132906307       -2.0525569608       17.6301232025
  H        16.6319519467        0.7600771397       22.3488415743
  H        16.4754583923        1.8235154085       20.9820904292
  C        18.0447091860        2.2699265384       22.5123177707
  S        12.0623347276        6.2871023552       11.7928645642
  C        11.3297774439        8.8390823781       11.4010951799
  H         5.4484557272       -0.7422923350       39.0687910651
  H         5.1208470567       -2.3598426244       38.6543672629
  H         6.1255615045       -1.3928687287       37.6109082630
  H         2.1072015035       -2.7851387973       17.5055141632
  H         1.0040462853       -1.8464733602       16.5917559510
  H         0.5826188974       -2.7118619658       18.0919864109
  H        17.8769716373        3.3966453839       22.5294341061
  H        18.8986385022        2.0241287461       21.9447801543
  H        18.2234515168        2.0721538876       23.4558089873
  C        12.2670856442        7.1630338195       10.2368500013
  N        11.9004612052        8.4663066319       10.2694852347
  O        10.9229454077        9.9799959823       11.5836725270
  S        12.8947629256        6.5069359238        8.7856509703
  C        11.9777421148        9.3837129136        9.0901756098
  H        12.0370784518       10.3474962744        9.5753803179
  H        12.9111743108        9.1355350758        8.5820035849
  C        10.6315783001        9.3727459949        8.2929476354
  H        10.1414201703       10.2978995127        8.2773370825
  H        10.8011032182        9.2358922592        7.2711625241
  H         9.8755107175        8.6318255501        8.5430431665
  H        21.6050649569        8.3269668840        3.8462188417
  C        22.0759988122        9.3316015139        3.7159268049
  H        22.7876064683        9.3485499569        2.9258542075
  C        22.8135412578        9.8879026491        4.8552237366
  C        20.9758565419       10.3168603062        3.2138272895
  C        21.8972098589       10.1490934012        6.1265182405
  H        23.5813956458        9.3083771850        5.3510577201
  H        23.4216997354       10.7974304195        4.6599052918
  H        21.3265121359       11.3199821807        3.3185381776
  H        20.0058544073       10.1601041482        3.7361903930
  H        20.7787759328       10.1335885335        2.1354311010
  C        21.0322737421        8.9000422241        6.4338415682
  H        22.4980462383       10.4529365820        6.9640561987
  H        21.1544511221       10.9102012668        5.9319757358
  C        20.3238383138        9.1080406279        7.7401819572
  H        21.5934042360        8.0595791185        6.6117881049
  H        20.3230534222        8.6830622079        5.6563064329
  C        19.1829575300       10.1249519206        7.7379991852
  H        21.0628336640        9.4471561411        8.4994249675
  H        20.0676072464        8.0693936703        8.0987458660
  C        17.7742030543        9.6255524667        7.2968545595
  H        19.0928508608       10.6170286268        8.7132774709
  H        19.4534956724       10.9254828278        7.0160435262
  C        16.6082914020       10.6467468160        7.1863018270
  H        17.5472143146        8.9228649207        8.0719681725
  H        17.9027098899        9.1416843540        6.3737243132
  C        16.9652790904       11.9037722562        6.4984956467
  C        16.3361747947       11.2135520834        8.4850946645
  C        15.3842578477       10.0165330498        6.5039772388
  C        16.8007186353       12.9653197522        7.3795810257
  C        17.4057259800       12.3827215505        5.2834317824
  C        16.4270407618       12.5827694514        8.6732855334
  C        15.9725260591       10.4393082637        9.5737535370
  H        15.6168906719        9.5764617395        5.4719991986
  H        14.9570162163        9.2196435639        7.1249602127
  C        14.1602086101       10.9259437216        6.2656635336
  S        17.1594197714       14.5124704601        6.6987358953
  C        17.5902723763       13.7437387650        5.1895248900
  H        17.4551851074       11.6820122611        4.4817012494
  C        16.1252389144       13.1163672825        9.9011004626
  H        15.8654629959        9.3789061107        9.4408682460
  C        15.5736580794       10.9836606255       10.7225258257
  H        14.4839686701       11.8871638379        5.7983258990
  H        13.6903977766       11.1553606412        7.2024230651
  C        13.0741427723       10.2474816247        5.4387777612
  C        18.1474585660       14.4566768502        4.0140682090
  C        15.6035414935       12.3559101281       10.9458193456
  H        16.2931580201       14.1343097037       10.0891870140
  C        14.9831443921       10.5054239666       11.8697716446
  H        12.1427469787       10.7384163170        5.5320790962
  H        12.8615504445        9.2477458357        5.8267317764
  C        13.3770407238       10.1665355478        4.0432297650
  C        18.1553727131       15.8387658149        3.8666200031
  C        18.4946516713       13.6783580787        2.8176755946
  C        15.1138190587       12.9882877260       12.2281770286
  C        14.7397447492       11.5702271197       12.7610718188
  S        14.5239800471        8.9533350177       12.4906026413
  H        14.0300669538        9.2752952006        3.9223670155
  H        13.7704267628       11.0401919594        3.6891812722
  C        12.1693924692        9.9613640951        3.2128925993
  N        17.7609861517       16.7558036664        4.8204272262
  C        18.4559836551       16.4904478863        2.6589737173
  C        18.7368042900       14.2724879957        1.5902199427
  H        18.4865241763       12.5731908885        2.8426971969
  C        13.8839353967       13.9627340774       11.9568305356
  C        16.2439544796       13.6322352032       13.0294438549
  C        14.2285143475       11.0968738237       13.9386582715
  C        14.1900703393        9.7333666971       13.9939630840
  H        11.4409724594        9.3620083017        3.6872301778
  H        11.7927267206       10.8751525331        2.9624215201
  C        12.5187908936        9.2718214572        1.9109200438
  S        17.8404173929       18.2554195468        4.1896400081
  N        18.2314669644       17.8346878300        2.7042498825
  C        18.7724467414       15.8062891233        1.4670420139
  H        18.8160643736       13.6393292143        0.6857297933
  H        14.0599360184       14.7236840233       11.1803653906
  H        13.5894908057       14.3127160157       12.8996315468
  C        12.6545440852       13.1104915998       11.4090513030
  H        16.7049698379       14.3963690200       12.4593285448
  H        15.6638731326       14.0254131187       13.9295364522
  C        17.3908450935       12.7009622825       13.5706233652
  H        13.8396887090       11.6795004898       14.7266393886
  C        13.8038391346        8.9508619663       15.1993761407
  H        11.5833160254        8.8640842258        1.6157316584
  H        13.2140644861        8.3863030456        2.1008091260
  C        13.2224331229       10.2278657907        0.9517265219
  C        19.0539305136       16.5584911751        0.2860086037
  H        12.8591946531       12.3704247415       10.5651355155
  H        12.1799862260       12.4348191126       12.1285338152
  C        11.4867710970       14.0648582996       11.0517743856
  H        17.9575607965       12.0684159594       12.8263082789
  H        16.8707449254       12.0245962787       14.2698175017
  C        18.4623991604       13.4971493467       14.3284680908
  C        13.9019238134        7.5595464506       15.3895442542
  C        13.1549233364        9.6352817762       16.3601751194
  H        13.2625525861       11.2535709260        1.4288390022
  H        14.2685076358        9.7724640624        1.0245136134
  C        12.7151172112       10.2560056085       -0.4758177009
  H        18.9754407378       17.6461588234        0.3716781522
  C        19.2144627562       16.1097425552       -1.0349135638
  H        11.8946932963       14.8164122503       10.4731324159
  H        10.9824139063       14.5444315993       11.9437168997
  C        10.4469026206       13.1329576803       10.3763640761
  H        18.8969288253       14.2064791101       13.6845265451
  H        17.9690145826       14.2495399926       15.0033320908
  C        19.6723501125       12.7834450215       14.9843966318
  N        14.2751616498        6.6649341328       14.4108770324
  C        13.5695620804        6.8435041566       16.5531811227
  C        12.9764278948        8.9947051717       17.5507175243
  H        12.9084693030       10.6665054129       16.3155600191
  H        12.9792330449        9.3458103309       -0.9991995238
  H        13.2908519661       11.0124660817       -1.0319295331
  H        11.6339744998       10.5633284610       -0.5688827121
  S        19.4778554060       14.5685760029       -1.5624252997
  C        19.1862469914       17.1148925716       -2.1390540397
  H        10.9273844741       12.5015905702        9.5647048624
  H        10.1001146550       12.3627158642       11.0399283756
  C         9.2910423736       13.9557302375        9.7618191379
  H        19.8974858838       11.7850464152       14.5532828924
  H        19.6098737527       12.7401515321       16.1459531386
  C        20.9130228981       13.6621230533       14.7881447125
  S        14.2436199261        5.1176849328       14.8902778455
  N        13.7251375475        5.4386102291       16.3819582149
  C        13.0916711613        7.5091614091       17.7221241626
  H        12.5460083769        9.5323882533       18.2944052286
  C        19.8322183140       15.2772693063       -3.1946691177
  N        19.5856866679       16.5940725740       -3.3266354986
  O        18.9231816305       18.3220666988       -1.9325716157
  H         8.9520099001       14.6092231228       10.6558570422
  H         9.6814898743       14.5324166753        8.9620095290
  C         8.1331840099       13.0686619100        9.2927489104
  H        21.7553954011       13.0204014487       15.0167178949
  H        21.0837404366       13.8689363130       13.6928832305
  C        21.0169096069       14.9484169861       15.6821546991
  C        12.8817102888        6.8069115813       18.9636528329
  S        20.2830941454       14.3397429977       -4.6459563841
  C        19.5749269101       17.3299578652       -4.5821507515
  H         8.5033571462       12.6171291816        8.3567025545
  H         7.9495651295       12.2862110596       10.0092782367
  C         6.8032096172       13.7302962878        8.8680674220
  H        20.8841908069       14.7097063165       16.7621184921
  H        20.1868411886       15.6425586738       15.5676227818
  C        22.4164032301       15.7076670556       15.5471639389
  H        13.1382002634        5.7149958010       19.0257619358
  C        12.3204613658        7.2236305501       20.2023169154
  H        20.5391880394       17.0156809230       -5.0519457024
  H        19.8738048979       18.4008586363       -4.4990895207
  C        18.1981510147       17.0824783387       -5.2127961225
  H         6.3754897080       13.3614343600        7.9934055539
  H         7.1545914122       14.6876967333        8.5571737438
  C         5.8821435837       13.7375810952       10.0519766252
  H        23.1908849124       14.9967636213       15.8880440003
  H        22.5783420691       15.8256110049       14.5084661416
  C        22.5191698178       17.0790759633       16.2878489942
  S        11.7836809313        8.7909115189       20.6702065349
  C        12.3032241953        6.1511562467       21.2643350370
  H        17.8510834204       16.0675591270       -5.1327178510
  H        18.1817428002       17.3664286146       -6.2543674766
  H        17.4759414270       17.7316693107       -4.6979889895
  H         6.2577414714       14.3990331966       10.8220584987
  H         4.8595015992       13.9347334295        9.7409765009
  H         5.8234017318       12.8180698695       10.5732768268
  H        21.9303193153       17.0153616594       17.1857875498
  H        23.5488481037       17.2004100047       16.5272229206
  H        22.1601408905       17.8572528938       15.6746590150
  C        11.4157268511        8.0524258011       22.2610917522
  N        11.7194979136        6.7236861211       22.3401310121
  O        12.6795876317        4.9901612343       21.1778231452
  S        10.9072653421        8.9668340257       23.6778704473
  C        11.6657250399        5.9554101937       23.6094083493
  H        11.4653740684        4.8561621359       23.4929312993
  H        10.8754862363        6.2051687782       24.3904464761
  C        12.8987960736        6.1202752408       24.4589530557
  H        13.8002924232        5.5892068147       24.0762777167
  H        12.7593408002        5.7184254217       25.4645408395
  H        13.0911862438        7.1453142650       24.6249911248
