352
 i =    77200, time =    77200.000, E =        25.2660374045
  H         9.8087540207        5.8036773216       33.0215203221
  C        10.8582105885        5.9632521664       32.8271556748
  H        11.0670960267        6.9635801437       33.1437831182
  C        11.1961265444        5.8933141319       31.2565818061
  C        11.4370126836        4.8309170199       33.7440293805
  C        10.3441680892        4.9300187415       30.5205461204
  H        11.1483856322        6.8671061364       30.7704182353
  H        12.2655536644        5.7406749376       31.1798351360
  H        11.0016551494        3.8479826246       33.8150832232
  H        12.5282059918        4.6745826587       33.4846518370
  H        11.4509554810        5.2778363396       34.7629564820
  C         9.4726329688        5.4529071137       29.4079008431
  H         9.7134560583        4.3923638905       31.1597584198
  H        11.0565411671        4.1949052005       30.1501269126
  C        10.1422836287        5.4803874761       27.9878199202
  H         8.5319923375        4.9508321204       29.2197435823
  H         9.2183596039        6.4496958544       29.7541497321
  C         9.4427160005        4.7036349755       26.9218271806
  H        11.1853375503        5.2240736970       28.0014483043
  H        10.1279380759        6.5524348250       27.6738704471
  C         8.1022623995        5.3077194268       26.4953542183
  H        10.0052602389        4.5501544932       25.9712180978
  H         9.1615330606        3.6601565276       27.3555392038
  C         7.0954955529        4.4706640493       25.6755121732
  H         7.4649495456        5.5637027147       27.4160318713
  H         8.3387507387        6.2477054341       25.9532792929
  C         6.7904661977        3.1147816484       26.4054023843
  C         7.6215637745        3.7874840216       24.4385052360
  C         5.7751327392        5.1318403106       25.2749230124
  C         7.1243623741        2.0035624026       25.5593531660
  C         6.3413114247        2.6830176544       27.6717217443
  C         7.5651422406        2.4190717457       24.3055440971
  C         8.0566902364        4.5046913129       23.3261019752
  H         5.2308815481        4.5286731145       24.5276841799
  H         6.0903932144        6.0183395671       24.7872272638
  C         4.8538010988        5.6924799636       26.3891401900
  S         6.9224839676        0.4811586691       26.3078934965
  C         6.4379137603        1.3399401490       27.8005742770
  H         6.2948792321        3.3285185902       28.4852470695
  C         7.9220217695        1.8259482013       23.1190696218
  H         8.1224948105        5.5388283624       23.2989423342
  C         8.3794145981        3.9073297336       22.1097223417
  H         4.8919702934        5.0500279786       27.2166082527
  H         5.0745623264        6.7289677629       26.7072046405
  C         3.4228241926        5.7221206667       25.9000197087
  C         5.9105418254        0.6354379055       29.0143955085
  C         8.3086173506        2.5671050908       22.0373794635
  H         7.8077848416        0.7176667192       22.9708354592
  C         8.7587891409        4.3593757097       20.8693084593
  H         3.0655022583        4.7431487118       25.4340190814
  H         3.3751462039        6.3879496669       25.0617554120
  C         2.5086794174        6.2530490603       27.0239748039
  C         5.9694462048       -0.7910753654       29.3049568506
  C         5.3305820023        1.5041747923       30.1206437637
  C         8.5417261031        1.9091745976       20.7290900170
  C         8.8817832803        3.2879335251       20.0101328862
  S         9.0849416388        5.8803479212       20.0563915337
  H         1.5842014341        6.7103912071       26.5694316290
  H         2.9226620075        7.0957614529       27.5630577708
  C         2.1838446286        5.1382964736       28.0731547806
  N         6.4295261894       -1.8088222362       28.4392705145
  C         5.6953370350       -1.3084811606       30.5609037425
  C         4.8868580740        0.9342149193       31.3189639860
  H         5.0531565343        2.4971399120       30.0060009580
  C         7.3677807522        1.1840763232       19.9636817763
  C         9.8557785923        1.0194491595       20.7285562421
  C         9.3822032228        3.7091320028       18.7237132568
  C         9.3948008417        5.0733246144       18.5916708492
  H         1.2647235541        4.6731070032       27.7658550346
  H         2.8902570079        4.3464428110       28.0673679240
  C         2.0319448394        5.7707663662       29.4719300077
  S         6.3679759741       -3.2442155095       29.2020468718
  N         5.9888240330       -2.6898519864       30.7040464104
  C         5.2912126767       -0.4944844593       31.6487471703
  H         4.3648219643        1.5789611108       32.0363195092
  H         7.1859758084        0.3119969317       20.5669239151
  H         7.6377762806        0.7976146863       18.9679873078
  C         6.0610679625        2.0812765108       19.7662217978
  H        10.2127914692        0.7857885695       19.6849385651
  H         9.6218739432        0.0938667123       21.2217594411
  C        10.9807119769        1.6991259213       21.5154720220
  H         9.6135179651        2.9650902523       17.9977437597
  C         9.7515123440        5.8333381659       17.3552135555
  H         1.2817825319        6.5978436819       29.4487225075
  H         2.9883712327        6.1857197827       29.7902424876
  C         1.6312093988        4.7102602426       30.4629009444
  C         5.1149345735       -1.0681772990       32.9606953635
  H         6.2607221702        2.8263974550       18.9573967757
  H         5.6477288937        2.6815404024       20.5950059898
  C         4.9139456393        1.1833968566       19.3997690044
  H        10.8118932521        1.9009386345       22.6057777731
  H        11.1015283094        2.7070352362       21.1847547316
  C        12.3925683917        1.0648721743       21.5631359412
  C         9.8746875000        7.2879742169       17.2053560192
  C        10.1276860693        5.1508421845       16.0899122329
  H         1.0015652301        5.2475472486       31.1681031095
  H         1.0527293444        3.8793832061       30.1377304904
  C         2.7530460661        4.0929759233       31.2556054542
  H         5.4213336143       -2.0361662548       33.0676723013
  C         4.7729363354       -0.5490614892       34.2520145895
  H         4.0489357803        1.5927015034       19.7723222099
  H         5.0827524388        0.2904129466       19.9810009986
  C         4.7026076780        0.8854976567       17.8845716932
  H        12.4658328538        0.3128943849       22.3780494427
  H        12.5202860521        0.5572906636       20.5966481727
  C        13.4791330490        2.0895881976       21.8039473576
  N         9.4468050090        8.1724834824       18.2338663625
  C        10.0931578339        7.9183747124       15.9712091776
  C        10.4425832035        5.8241450434       14.8941962528
  H        10.1777164853        4.0723797351       16.0100108345
  H         3.2115167137        4.8014822329       31.9574299586
  H         2.4187087658        3.2378640712       31.8858851152
  H         3.5959822020        3.7990229525       30.6972233114
  S         4.3996991146        1.0924245215       34.7414484843
  C         4.8397243379       -1.4940291875       35.4053418510
  H         4.7807207332        1.8853671460       17.2760420576
  H         5.5669679453        0.3765580394       17.4420214940
  C         3.4047247376        0.2181171968       17.4642474161
  H        13.0170067618        2.9477621761       22.2214590888
  H        13.8594625426        2.3399891306       20.8657574525
  C        14.6727623309        1.5986449864       22.6682343774
  S         9.6416054806        9.6732227532       17.7189652595
  N        10.0345274682        9.3199092566       16.1290465091
  C        10.3681976376        7.2776521839       14.7697517254
  H        10.7898647470        5.2425504139       14.0999665971
  C         4.1296745284        0.4535312111       36.4121143023
  N         4.3316731935       -0.8844142887       36.4953625688
  O         5.1927665075       -2.6484776401       35.2812276581
  H         3.6679690333       -0.4774441105       16.6693628418
  H         2.7105584499        0.9105180731       17.0119901599
  C         2.8129257882       -0.6180385408       18.5908377300
  H        14.2757558296        0.8845819503       23.3894831450
  H        15.3702306450        1.0522723182       22.0784631257
  C        15.2650085075        2.7939119531       23.3611585194
  C        10.6641833606        8.1095911758       13.6364487979
  S         3.7235386428        1.4218774889       37.8257429949
  C         4.4567588569       -1.6469193571       37.7376099828
  H         3.5236426997       -1.2319006697       19.1588752655
  H         2.2989051743       -0.0055272860       19.3033628477
  C         1.7618573851       -1.5493539047       17.9864779981
  H        14.6612070247        3.2839740453       24.0992468084
  H        15.5371101421        3.5335789974       22.6217946528
  C        16.5347601228        2.3647095671       24.0508220782
  H        10.3318137972        9.1269711650       13.6885569848
  C        11.1478585190        7.8603646560       12.3922456608
  H         3.8135945740       -1.2008545319       38.5169956476
  H         4.2235621857       -2.6870829329       37.4689694017
  C         5.8463298542       -1.4730984285       38.3144459634
  H         1.1016421681       -1.0904890546       17.2725206357
  H         1.1692366564       -1.8387929223       18.8517390590
  C         2.3969330654       -2.6979711436       17.2526157226
  H        16.7635817944        2.9645401410       24.8927983749
  H        16.4439554187        1.3785455425       24.4967469354
  C        17.8156925435        2.2714725079       23.2362970036
  S        11.8247654668        6.3619205650       11.8489957282
  C        11.2556424516        8.9450749464       11.4210049829
  H         6.1695717294       -2.0127829648       39.1770537931
  H         6.5492252760       -1.7645580729       37.6069893502
  H         6.1058051646       -0.4347976265       38.4380442373
  H         3.4863923994       -2.7606927150       17.4819605337
  H         2.2341707053       -2.5418246080       16.2168889506
  H         2.0277178485       -3.7027734889       17.4734346525
  H        17.8058494176        3.2200919488       22.7116934210
  H        17.8093380584        1.4881902063       22.5405321735
  H        18.7250802639        2.1703361995       23.8415895702
  C        12.0599889660        7.1169375554       10.3375613110
  N        11.8343560432        8.4931430352       10.3087940019
  O        10.8721739667       10.1166564416       11.5511256200
  S        13.2768865000        6.4989991003        9.2058119091
  C        11.8629918514        9.2903904812        9.0909539480
  H        11.9151316471       10.2261343837        9.4640520459
  H        12.7741013465        9.1292940100        8.3933289597
  C        10.6191389864        9.3321972042        8.3163114003
  H         9.9785553883        9.8547350152        8.9860250294
  H        10.7329880747        9.9115407318        7.3685602383
  H        10.3068016074        8.3438153614        7.9774603001
  H        21.2752208997       11.0638376676        2.8636992812
  C        21.6547105430       10.1444567274        3.2495219993
  H        20.6748049475        9.6237011640        3.4902547994
  C        22.6111595696       10.2466392271        4.3731422968
  C        22.2852448039        9.4719109047        2.0356302189
  C        21.9917153473       10.5035302775        5.7451611287
  H        23.2411167558        9.4048108342        4.3351807756
  H        23.2230864064       11.1490467123        4.1920889473
  H        22.7680009726       10.1390221481        1.3780965450
  H        21.4024124362        9.1237019609        1.5494208593
  H        22.8335442415        8.5883012043        2.2810727271
  C        21.2115555885        9.2838328644        6.2531741774
  H        22.7206743922       10.8732568079        6.4524411136
  H        21.2004359962       11.2331280898        5.5545628245
  C        20.0458075286        9.5672664767        7.1840599282
  H        21.9681365472        8.6180974509        6.7567123292
  H        20.8573931377        8.7102284295        5.4206521349
  C        18.6650549230        9.7884667680        6.5058701776
  H        20.2102655528       10.3597980515        7.9818496794
  H        19.9050015776        8.7008924747        7.8254372956
  C        17.5440243778        9.7230191021        7.5989001965
  H        18.7664828273       10.7573209374        6.0558038871
  H        18.4818521730        9.0138269306        5.6392141488
  C        16.3310190839       10.5526078089        7.2290071704
  H        17.9865091578       10.1796513916        8.4840685683
  H        17.3770803436        8.7206122296        7.9899005501
  C        16.6206810333       11.8729276188        6.4944526404
  C        15.8723600400       11.2998954361        8.4425728591
  C        15.2098937331        9.7223899324        6.4460496887
  C        16.4037018342       12.9416847906        7.3007554520
  C        17.0935783362       12.2386748482        5.2779099548
  C        15.9504574442       12.6059106805        8.5639007642
  C        15.4930683188       10.5460415518        9.5355293273
  H        15.6524732126        9.1383624545        5.6017753504
  H        14.8873496794        9.0067774305        7.1895706542
  C        14.0345250218       10.6661780179        5.8597475454
  S        16.7931506015       14.3425362568        6.5492250809
  C        17.2510660844       13.5243436900        5.0898701491
  H        17.1293500353       11.5188120708        4.4983108992
  C        15.6434521169       13.2012134510        9.7897928038
  H        15.3069802706        9.4457542607        9.4284131868
  C        15.1810525931       11.1268577310       10.7008746400
  H        14.3061586396       11.5851926838        5.4257831368
  H        13.4025589662       10.9453885025        6.6879428975
  C        13.1689611785        9.9599957864        4.8145749971
  C        17.7618396261       14.2729016433        3.8921014799
  C        15.2164808397       12.4523945979       10.9268334479
  H        15.7097386001       14.2177111136        9.8646718077
  C        14.7454505686       10.6958258234       11.9458031919
  H        12.2871893608       10.5771767611        4.5030771816
  H        12.7872388215        9.0126029416        5.2207055817
  C        13.9219936064        9.6409589318        3.5158055556
  C        17.6860289178       15.6941360227        3.6159534610
  C        18.0861578897       13.3903620224        2.6990355786
  C        14.8638393531       13.1491524350       12.2230650639
  C        14.5980340825       11.7727878607       12.8143907550
  S        14.3878148798        9.1419264555       12.6066738365
  H        13.9338681671        8.5514821097        3.5069397942
  H        14.8880498131       10.1102712376        3.4689685125
  C        13.1160100833       10.0993656681        2.2668322886
  N        17.5559055360       16.6347988331        4.6566319383
  C        18.0098497380       16.2333168781        2.3796691979
  C        18.3366748261       13.8768243280        1.4348181168
  H        18.0535277384       12.3798125594        2.9189327811
  C        13.6211740942       14.0044000334       11.9564651983
  C        15.9467197952       13.8903276447       13.0060550890
  C        14.2497350286       11.3624973244       14.1329246669
  C        14.0726717543        9.9501098616       14.1310794207
  H        12.0794017272        9.8405689610        2.3625094390
  H        13.0412869387       11.2487947773        2.1264312626
  C        13.5675877540        9.3958385204        0.9692590674
  S        17.6997675658       18.0757865031        3.9644203789
  N        17.9387061476       17.6233781353        2.3801775504
  C        18.3539273478       15.4001333688        1.2444054421
  H        18.4737729410       13.1876730323        0.6140151220
  H        14.0611116277       14.8724453156       11.4768134583
  H        13.2579837549       14.2885708098       12.9365430553
  C        12.4759572694       13.3887331554       11.1329112657
  H        16.1193520366       14.8487336105       12.4460763311
  H        15.5419769496       14.1897537049       14.0131746667
  C        17.3122143953       13.1832570075       13.1763439180
  H        14.2479467613       12.0812716378       14.9806188467
  C        13.8150645748        9.1467161808       15.3610811065
  H        13.3051134558        8.3321570241        0.9636542351
  H        14.6241780823        9.6832047581        0.9567582193
  C        13.0796501277       10.0644997210       -0.3168093007
  C        18.5559602758       15.9659254064       -0.0710542694
  H        12.7910692692       13.2850618101       10.0788454413
  H        12.3320558633       12.4007373705       11.6224021478
  C        11.0423196524       13.9423599144       11.1761598157
  H        17.6061177567       12.8643064794       12.1790872357
  H        17.1975453390       12.3810305229       13.8408890774
  C        18.3462788083       14.2128291376       13.5483775021
  C        13.7290846688        7.7470953109       15.5063054085
  C        13.6677925343        9.8969895132       16.6205724533
  H        13.5363146460       11.0213728005       -0.4932144794
  H        13.5415244416        9.5560942681       -1.1720314980
  C        11.5911812908        9.9321909623       -0.5017893444
  H        18.6116364761       16.9923712671        0.0522610983
  C        18.7892165871       15.5324864562       -1.3230108877
  H        11.0541654809       14.9213264264       10.7749672490
  H        10.7629794541       14.0440573487       12.1845370724
  C        10.1567595956       13.1189826964       10.3090790205
  H        18.9124954400       14.6655226348       12.7396203549
  H        17.8446335532       15.0088407964       14.1500599630
  C        19.4382590589       13.6073007517       14.3856007942
  N        13.8724565818        6.8519483157       14.5061069110
  C        13.5017561546        7.1075969429       16.6689161530
  C        13.4866596757        9.2532039716       17.8305387184
  H        13.8026255466       10.9620048006       16.6064178430
  H        11.0891145194        9.2666987935        0.2173397070
  H        11.4295614124        9.4699937214       -1.4624824733
  H        11.0225921129       10.8671781218       -0.3273205746
  S        19.3218005985       13.9463354617       -1.8563874721
  C        18.9830083989       16.6062324915       -2.3859196725
  H        10.7755510131       12.4523923478        9.5882939722
  H         9.6760041406       12.4397492724       10.9659243231
  C         8.9931850225       13.8161727328        9.5015213091
  H        20.1406495257       13.0571263505       13.7860994564
  H        19.0839115014       12.8673528569       15.0324577144
  C        20.1540312291       14.6811266703       15.2669133071
  S        13.7271822446        5.3338944562       15.0040277898
  N        13.6031012985        5.7400136077       16.5718099402
  C        13.2758457128        7.7643970287       17.9380965071
  H        13.5203330845        9.8901779119       18.6989987249
  C        19.4816382367       14.6812909019       -3.4011707303
  N        19.5594664703       16.0350545431       -3.4644523338
  O        18.9793932696       17.7903233709       -2.1168573980
  H         8.4983888766       14.5422701857       10.1754279252
  H         9.3347631770       14.5218462540        8.6958483224
  C         7.9382357619       12.9006645815        8.9867302767
  H        19.4206966884       15.0728533915       16.0207435808
  H        20.9243920352       14.0112804496       15.7617050489
  C        20.7206919448       15.8780510033       14.5156766413
  C        12.8816668406        7.0357355107       19.0919640116
  S        20.1821289660       13.8988644064       -4.7933854145
  C        19.7835678348       16.7473407693       -4.6720813156
  H         8.4527547869       12.2882083967        8.1506643870
  H         7.6245183411       12.0424086150        9.6354807618
  C         6.7513100682       13.6071786592        8.4023030582
  H        19.8231339439       16.4051422955       14.2122571584
  H        21.1841167411       15.5193258548       13.6144049586
  C        21.6550064933       16.7257425641       15.3588413243
  H        13.2383427251        6.0527498845       19.1250995128
  C        12.3332145928        7.4273701090       20.2702635838
  H        20.6225790110       16.2839105018       -5.1480756722
  H        20.0462802473       17.7700724930       -4.5431974060
  C        18.5140287418       16.5219140016       -5.5692688383
  H         6.3299650937       13.2352649805        7.5251540207
  H         7.1053801690       14.6110905109        8.1983354955
  C         5.5397413771       13.6785160414        9.3008156553
  H        21.6697393453       16.4509924244       16.4133687318
  H        22.7187562726       16.4921770915       15.0390592384
  C        21.4128315409       18.2261543144       15.4046648415
  S        11.7805617531        9.0054988561       20.6257886808
  C        12.2034263536        6.4599977569       21.3822945323
  H        18.7986054573       15.8404645097       -6.4189372684
  H        18.2099478725       17.4901598232       -5.9736833353
  H        17.6097225258       16.1784801534       -5.1394569969
  H         5.7718005339       14.4162195777       10.1129377698
  H         4.6398406287       13.8940827706        8.6777277769
  H         5.3343422696       12.7722122506        9.8156747847
  H        21.5895506060       18.6701944685       16.3869995714
  H        22.0672631824       18.8676083145       14.7238414743
  H        20.3994608584       18.4530974480       15.0215871862
  C        11.3143709255        8.3594335570       22.2292078037
  N        11.5577584625        7.0369799586       22.4044346150
  O        12.3274342495        5.2368828022       21.1903663337
  S        10.6677409285        9.3885179201       23.4801154259
  C        11.2497486131        6.3629169723       23.6279474912
  H        11.1286190499        5.3217501457       23.4745894865
  H        10.2613722136        6.7916920359       24.0302378252
  C        12.3541792169        6.5874750946       24.6859723516
  H        12.3852650771        7.6300444982       24.9349828947
  H        13.3073944563        6.2338488767       24.1673071513
  H        12.2239913669        6.0562158183       25.6384911958
