352
 i =    94100, time =    94100.000, E =        24.9781255584
  H        10.3160038542        7.3898458687       32.4015788386
  C        11.2798342911        6.8294767207       32.3866726737
  H        11.9840042549        7.6156347842       32.6947924345
  C        11.6444713936        6.3952366547       31.0085569584
  C        11.4288955742        5.8767685486       33.5411487243
  C        10.6066828851        5.4364591014       30.4636578272
  H        11.9029490057        7.2084848606       30.3237730790
  H        12.5821274405        5.7827366396       31.1523866560
  H        12.4496626091        5.9487383992       33.9211219994
  H        10.7292282365        6.1671390628       34.4000904792
  H        11.2406525430        4.8584260209       33.2803696732
  C        10.1339820962        5.9852972356       29.1103166999
  H         9.8419643890        5.3264951416       31.2009603175
  H        11.0308023682        4.4533186358       30.2933821644
  C        10.9327299220        5.7953847785       27.8002742380
  H         9.0577859909        5.7059445962       28.9377078749
  H        10.1733266679        7.0462005139       29.2309745957
  C        10.0083521358        5.1782075526       26.6846294908
  H        11.7401605294        5.1204022762       28.1079002780
  H        11.4244574328        6.7549801399       27.5184643747
  C         8.7759786845        6.0309412315       26.1820283613
  H        10.5146083504        4.9882910665       25.8119106952
  H         9.7011195080        4.2547542238       27.0683600050
  C         7.6255496815        5.2647502093       25.5067947899
  H         8.3770120882        6.4845270204       27.0778560868
  H         9.0945683904        6.9127501861       25.5975345854
  C         7.3234688279        3.8480858758       26.1354785670
  C         8.1413378465        4.6154263329       24.2826546647
  C         6.4015003096        6.0031311930       24.9106822313
  C         7.6040105225        2.7801884061       25.2659640554
  C         6.8964831164        3.4152721606       27.4151581640
  C         8.1241641639        3.2844406982       24.0907795209
  C         8.5975912498        5.3310954505       23.2269729820
  H         5.7074956078        5.4906825517       24.2558239932
  H         6.8324736491        6.7227715302       24.3022395577
  C         5.5512183840        6.6257652512       25.9691314468
  S         7.3047843541        1.2467858357       26.0176924908
  C         6.7358066679        2.0408652178       27.4459664747
  H         6.7337507377        4.0688022597       28.2341964092
  C         8.6456850263        2.7257955126       23.0049060573
  H         8.6106688058        6.3642216533       23.2503238089
  C         9.0439696899        4.7542571486       22.0662278346
  H         5.6057711815        5.9242063164       26.7229466652
  H         5.9875672577        7.5216108650       26.4328163886
  C         4.1369642680        6.8214092802       25.5608645496
  C         6.3323657743        1.2869443531       28.6487732982
  C         9.0706076761        3.4276350911       21.9406361407
  H         8.7149968251        1.6772351565       22.9240230633
  C         9.4396469555        5.1323412183       20.8346709451
  H         3.6068050825        6.0260156405       25.0422582399
  H         4.1461496262        7.6639833550       24.7257634352
  C         3.1690341309        7.1413388741       26.6557058175
  C         6.2929221374       -0.1448926056       28.8390991223
  C         5.8297451470        2.0801695878       29.7912484360
  C         9.5190916002        2.6862945725       20.6647015992
  C         9.7011928985        4.0343479179       19.9827886590
  S         9.5469150147        6.5845899438       20.0545338700
  H         2.3300947195        7.5541214181       26.1271281236
  H         3.5841539816        7.9136880739       27.3420916920
  C         2.7361523248        5.9678010407       27.5337087147
  N         6.7040806719       -1.0955516613       27.8621334763
  C         6.0939397747       -0.6618097765       30.1144989512
  C         5.5783557832        1.5121220529       31.0730397761
  H         5.5679454460        3.0521627007       29.6023720994
  C         8.3684523552        1.7780575054       20.0839227832
  C        10.7729996830        1.8474466231       21.0568312940
  C        10.2218086788        4.4505516551       18.7473247016
  C        10.0437161045        5.8241228261       18.6149066178
  H         2.4947185507        5.1143367625       26.9263707652
  H         3.5089480984        5.7452446152       28.2053759759
  C         1.4576806040        6.3159733361       28.2879019921
  S         6.4769018280       -2.5023136838       28.5182000912
  N         6.1750071974       -2.0813708069       30.0714577109
  C         5.7302617048        0.0456406463       31.2631492815
  H         5.2881920793        2.1547742563       31.8825141387
  H         8.1325526296        1.1245491301       20.8616149724
  H         8.7922110458        1.1275938795       19.3474536865
  C         7.0784002865        2.4895170788       19.6401060837
  H        11.1658227491        1.1626749069       20.3247751273
  H        10.5334707221        1.1519452598       21.8404383859
  C        12.0009638157        2.6637077275       21.4898036513
  H        10.5816745961        3.7139774615       17.9775747259
  C        10.3800566621        6.6212863215       17.3730440724
  H         0.7767698133        5.4997484606       28.1872096987
  H         0.8689391696        7.0956836368       27.7262126182
  C         1.6512113971        6.6193553496       29.7626656074
  C         5.5311151497       -0.7086400629       32.4784087504
  H         7.3229651934        3.2750455793       18.8698347079
  H         6.6806692366        3.1636807587       20.3463298570
  C         5.9518688924        1.5417066889       19.1918427795
  H        11.6075159460        3.2026983243       22.3695164223
  H        12.3776646088        3.4473774279       20.8113654217
  C        13.1487638154        1.7733657910       21.9409043135
  C        10.4938242327        8.0447029982       17.3413552761
  C        10.6810626161        5.8762566271       16.1446265598
  H         2.6201736410        7.0805066455       29.9431127602
  H         0.8711142374        7.2447827848       30.1757647848
  C         1.8975134538        5.3577323966       30.6028336184
  H         5.6763961638       -1.7139476748       32.3292300365
  C         5.1132553800       -0.3308028837       33.7544710679
  H         5.4514598251        1.1537601723       20.0985286234
  H         6.3390321439        0.6095077272       18.6104294762
  C         4.8978049453        2.2322912149       18.4044480090
  H        12.9682925805        1.2204717361       22.7662374603
  H        13.4309899175        1.1319019715       21.1002997716
  C        14.3220593525        2.7270285105       22.3595708591
  N        10.1721466178        8.8838912661       18.3803084824
  C        10.8322247811        8.7077020549       16.1645995997
  C        11.0872813320        6.5594601012       15.0224821763
  H        10.6201305638        4.8368522143       16.0786270645
  H         2.4636746090        5.5830117670       31.4957895049
  H         0.9748369042        4.8843646745       31.0225688861
  H         2.3383168173        4.5835929077       29.9836487862
  S         4.8894432307        1.3087754909       34.3478873277
  C         4.9442106484       -1.4248991172       34.7076482301
  H         4.7164925331        3.1703489802       18.9131417681
  H         5.3230059516        2.5761582786       17.5243154142
  C         3.6734234913        1.3682237135       18.1653558677
  H        14.0170000101        3.2348682065       23.3111968717
  H        14.3858368584        3.4665973636       21.6179109453
  C        15.6374038020        1.9070232337       22.4865122126
  S        10.4322820400       10.3828605740       17.8214113842
  N        10.8528058958       10.0673046604       16.2824539749
  C        11.1815737555        8.0104411110       14.9756105154
  H        11.2219301314        6.0001538553       14.1182837182
  C         4.5553638126        0.5740964898       35.8761321608
  N         4.6063888497       -0.8347630827       35.9079039282
  O         4.8872141716       -2.6374727351       34.3402054184
  H         2.8539478430        1.9594880455       17.7085736751
  H         3.3430470749        1.0128916123       19.0928656822
  C         3.7805147087        0.2365550789       17.1435127845
  H        15.3649992967        1.1067354018       23.1814676735
  H        15.9990099982        1.5400017049       21.5382255371
  C        16.7100317812        2.6601547021       23.2521373123
  C        11.3091487154        8.7849789265       13.7916239065
  S         4.1366214452        1.3718487314       37.3751773312
  C         4.6768837043       -1.6215425638       37.1097370140
  H         4.1095229501        0.5812471130       16.1425367647
  H         4.5465903476       -0.3070621626       17.6546376902
  C         2.4519608205       -0.5894321625       17.1380468210
  H        16.2616143261        3.1235693483       24.1102993024
  H        17.1309072715        3.5792656182       22.7608215333
  C        17.8429571062        1.7213618047       23.6818844118
  H        10.9876530048        9.7762258329       13.9218599334
  C        11.7570557660        8.5369082100       12.5092630378
  H         3.9399422536       -1.2142615536       37.8305414749
  H         4.2879838351       -2.5454526636       36.7850238577
  C         6.0300949665       -1.7392681439       37.8240187177
  H         1.9516205421       -0.3924398264       16.2142838266
  H         1.7090869989       -0.2076714002       17.8416047730
  C         2.5392663026       -2.1115899604       17.2478136023
  H        18.4659202416        2.1053265413       24.4816052821
  H        17.4687721487        0.7194156316       24.0124547634
  C        18.7592681479        1.4858094853       22.5313263117
  S        12.4640720936        7.1568747081       11.9309577926
  C        11.6905354638        9.6884956252       11.5833344328
  H         6.7816079196       -1.8709958533       36.9585737593
  H         6.1830363120       -0.7950015586       38.4127025524
  H         6.0705233985       -2.6685151139       38.5109610644
  H         1.7920660920       -2.4414469876       18.0185751021
  H         3.4816327601       -2.4662830428       17.5943148336
  H         2.4008290762       -2.5715425588       16.3485197313
  H        19.7784388898        1.2270071462       22.7668933498
  H        18.8231298197        2.4298807790       21.9140303834
  H        18.3998918746        0.6923408512       21.8720922619
  C        12.5125783821        8.0270266249       10.3986532327
  N        12.1999573639        9.3298187593       10.3876957018
  O        11.3501878395       10.8072348673       11.9112613645
  S        12.9879555071        7.3029681723        8.8994648635
  C        12.2240534244       10.2399265947        9.1767350084
  H        12.3906242024       11.2514605308        9.4964953876
  H        13.1798539839       10.0895816157        8.6168313564
  C        11.0693645088       10.0848005176        8.2146523950
  H        11.2925756949       10.4587013227        7.2474561289
  H        10.9396932377        9.1044150696        7.8507059505
  H        10.1586657596       10.5438177904        8.6012824129
  H        21.8100131121       10.8034947073        3.0624152684
  C        22.2709129959        9.8408998608        3.1685387378
  H        21.4109088502        9.0957467871        3.2470091934
  C        23.0709937463       10.0008440036        4.4000675062
  C        23.0898452846        9.6511097760        1.9431112144
  C        22.2441326962       10.3381781146        5.6031679038
  H        23.6691451417        9.1453008443        4.5681449926
  H        23.8308342121       10.7437521008        4.2716600863
  H        24.0753822893        9.3040314809        2.1914383569
  H        23.1359735617       10.4845172809        1.3018795671
  H        22.5869146762        8.9289507105        1.3499423868
  C        21.6573901691        9.0518795594        6.3045584116
  H        22.8520759649       10.9660793572        6.2456934223
  H        21.4789569984       11.0358511046        5.2909780465
  C        20.5800394511        9.1841285339        7.3049565260
  H        22.4368890899        8.5633385132        6.8167900179
  H        21.2682310065        8.4044026636        5.5398478803
  C        19.2995623294        9.7793578029        6.6147962810
  H        20.9396791163        9.8087889743        8.1233734648
  H        20.2948853350        8.1670082070        7.6347454040
  C        18.1096602240        9.9665666395        7.5913514714
  H        19.6058502098       10.8289847939        6.3176376706
  H        18.9312467182        9.1605610232        5.7286617808
  C        16.9310186495       10.8714568769        7.2208653631
  H        18.4907023707       10.3761868986        8.5634388387
  H        17.6874677676        9.0433606443        7.9684945635
  C        17.3709219727       12.1876159127        6.5310510754
  C        16.5660721956       11.6450013518        8.4453148393
  C        15.6246066798       10.1647991062        6.5127812657
  C        17.1267075862       13.2974281791        7.3665287941
  C        17.8749932418       12.6476699595        5.2922656921
  C        16.6927155682       12.9629914260        8.6103041175
  C        15.9827583378       10.9605370052        9.5459958355
  H        15.9584254199        9.6602860942        5.6565375890
  H        15.0287028444        9.4194925640        7.0836644729
  C        14.5149350861       11.2208841823        6.1462848074
  S        17.3304686277       14.8269845018        6.5449034833
  C        17.9693970482       14.0056383866        5.1021875483
  H        18.0698418747       11.8772329636        4.5819593198
  C        16.3489365571       13.5573708790        9.8188465728
  H        15.8731196428        9.9085323008        9.4305352003
  C        15.7104965105       11.5375782161       10.7757548124
  H        14.8804235988       12.1708359489        5.8462533051
  H        14.0874770800       11.3994702973        7.1706564302
  C        13.4968386060       10.7618089793        5.1558915443
  C        18.3617692761       14.6925914529        3.8763260111
  C        15.8965643032       12.8557395346       10.9100065596
  H        16.4570291718       14.6278716479        9.9983547963
  C        15.3638332972       11.1824888164       12.0115096969
  H        12.6600817369       11.5297011184        5.1486389931
  H        13.1111512888        9.7911217108        5.4280855617
  C        13.9851018679       10.5814683164        3.6590187216
  C        18.3522111713       16.0760816103        3.6090052030
  C        18.7164939954       13.8137927626        2.7144152872
  C        15.5961110125       13.5845496310       12.1805736124
  C        15.2794229747       12.2227272434       12.8572403269
  S        15.1315002363        9.6563295453       12.7501987540
  H        14.4878548399        9.6034043934        3.4817483534
  H        14.7372171744       11.3571225638        3.5015205209
  C        12.9458328820       10.6984063673        2.5597475043
  N        18.0377115937       17.0788239688        4.5428902034
  C        18.5973799546       16.6386049859        2.3577222435
  C        19.0113915682       14.3586368888        1.4762854417
  H        18.7435559946       12.7596037029        2.8533350628
  C        14.4092797515       14.5397669803       12.1552170894
  C        16.8242682417       14.2391476988       12.8802733985
  C        15.0130859866       11.8143152828       14.1955655103
  C        14.9056094154       10.4777305270       14.2817345020
  H        12.2959310128        9.8991245443        2.7327794212
  H        12.4134921298       11.6671407184        2.5753946519
  C        13.6272321229       10.3983331332        1.1856366242
  S        18.0840070765       18.4832161030        3.8093644326
  N        18.6121554901       18.0392175379        2.3327986708
  C        18.9599310349       15.8569200306        1.2649170342
  H        19.2080098651       13.6428584885        0.6949765152
  H        14.8594587692       15.4926669371       11.7833733938
  H        13.9956794351       14.7069130606       13.1620150024
  C        13.2680058706       14.0996504629       11.2528006356
  H        17.1755734060       15.0433841682       12.2292312074
  H        16.4229332203       14.6067008349       13.8608653145
  C        17.9722325015       13.1609525258       13.1057571793
  H        14.8477778239       12.6329490299       14.8678859312
  C        14.6048832824        9.6831312711       15.4851951025
  H        13.9036013088        9.3941017411        1.2371786283
  H        14.4138029398       11.0602685661        0.8298898916
  C        12.4071464639       10.4759707663        0.1906990006
  C        19.0472522210       16.4212949789       -0.0140406651
  H        13.3695274876       14.4857256296       10.2916991687
  H        13.3474731210       13.0342969639       11.1976051729
  C        11.8722282462       14.5107627750       11.6207423394
  H        18.3121895193       12.6860473561       12.1447619322
  H        17.6519164984       12.3514200295       13.7264634860
  C        19.0795987080       13.7054946839       14.0191854971
  C        14.4455078660        8.2879346301       15.6353647797
  C        14.3524015915       10.4886605060       16.7108132053
  H        11.9473707166        9.5084905299        0.3822056333
  H        11.6949967602       11.2594003647        0.4161159155
  C        12.7887081251       10.5584837674       -1.2630477885
  H        18.7890248841       17.4772568129       -0.0657545025
  C        19.3668974186       15.9557146884       -1.2738994099
  H        12.0036014287       15.5134744894       11.9750714214
  H        11.5663822046       13.8588792260       12.4624616214
  C        10.8515219863       14.3570428372       10.4021136805
  H        18.6755491242       14.3499340130       14.8119434427
  H        19.4511197617       12.8479748509       14.5872262313
  C        20.1825695409       14.4660576888       13.2315606227
  N        14.6980276571        7.3340526506       14.6375401001
  C        14.1269115821        7.6515716276       16.7959227069
  C        14.0602738897        9.8674718105       17.9347978432
  H        14.4788329350       11.5288142960       16.8178713167
  H        12.0934149395       11.1811702941       -1.8380950125
  H        13.1192962844        9.5591955911       -1.6285322564
  H        13.6782156297       11.1165552851       -1.2726892183
  S        19.6178602143       14.3323976875       -1.7164771948
  C        19.3753248848       16.9418897687       -2.3913283621
  H        10.9187025854       15.2472547926        9.7630400410
  H        11.1595492420       13.4906725682        9.9185910736
  C         9.4266210121       14.1668483751       11.0223196965
  H        19.8082158802       14.9830091657       12.2848125641
  H        20.9175863180       13.6878107207       12.9731492562
  C        20.9268188457       15.4295738729       14.0981557490
  S        14.3648419795        5.8537985796       15.1774699613
  N        13.9931938621        6.2534619082       16.6702356189
  C        13.8416830705        8.3495052977       18.0207871648
  H        13.9089429023       10.4271308155       18.8248230715
  C        19.7384468503       14.9324878659       -3.4039252838
  N        19.7076405095       16.2743632798       -3.5058412894
  O        19.1521393169       18.1243339054       -2.2043234210
  H         9.3139718172       13.2072495756       11.4146441774
  H         9.5223483045       14.8160053250       11.9033543365
  C         8.3815288542       14.6286720569       10.1669775995
  H        20.3209604959       16.1882094519       14.4503130671
  H        21.2077890278       14.8330290799       14.9331124324
  C        22.0978994027       16.1138258146       13.4805986439
  C        13.4862026184        7.6308276381       19.2111145717
  S        20.3348288415       14.0854511452       -4.8185753741
  C        19.7402212990       17.0489459728       -4.7487301623
  H         7.4442200566       14.7632465555       10.6666271160
  H         8.4732324438       15.6077213729        9.8541097384
  C         8.0745081636       13.7016480613        9.0998491131
  H        21.9277816857       16.3497135271       12.4164776008
  H        23.0334862519       15.5223158364       13.5902787500
  C        22.5202368600       17.3947927713       14.1870114306
  H        13.5756225353        6.5892808172       19.2942845453
  C        13.0036404091        8.0548501113       20.3990554746
  H        20.5837108216       16.7124940984       -5.4072757195
  H        20.0079032923       18.0716791162       -4.4538114384
  C        18.3438210916       17.1532534939       -5.4753406497
  H         7.7000962211       12.8158680381        9.4502143195
  H         8.9573734733       13.4773345715        8.5314289563
  C         7.0995470272       14.1888531283        8.0821203638
  H        23.4288296262       17.8004013594       13.7505143853
  H        21.6923122995       18.0980432472       14.1354914531
  C        22.7798673203       17.3067788190       15.6898880712
  S        12.5853707972        9.6429797357       20.9236188673
  C        12.6791192095        6.9475060107       21.3604908187
  H        17.5192001901       17.4297517107       -4.7098815989
  H        18.0629417498       16.2629402269       -6.0147191216
  H        18.4408064574       18.0413566430       -6.1098967556
  H         7.2193753000       13.7489134931        7.1151095682
  H         6.0708740805       14.0506591522        8.4455962953
  H         7.1373406562       15.2529033002        7.8870493586
  H        23.5575720646       18.0577869878       15.9117997877
  H        21.8460909076       17.4077117730       16.3189913494
  H        23.2398058820       16.3095393837       15.9068223993
  C        12.2202524350        8.8878447407       22.4167093786
  N        12.1409633779        7.5446589064       22.4488260634
  O        12.8665717901        5.7336762014       21.3096459279
  S        11.4060673976        9.8034191373       23.7095840208
  C        11.9520270468        6.9395948196       23.7422243962
  H        11.4366613478        5.9815148350       23.6877863978
  H        11.2764349703        7.4063804295       24.4321896980
  C        13.2705435966        6.9612129965       24.4882490766
  H        14.1441969610        6.6081763465       23.9460888005
  H        13.0200828043        6.3623928379       25.3290492340
  H        13.5845761594        7.9607968725       24.8040111747
