352
 i =    20700, time =    20700.000, E =        24.7298872030
  H        12.1057422081        7.0784245474       31.8121151890
  C        11.8075021810        6.0229055008       31.9344678539
  H        12.7080652940        5.5102408960       31.7494758225
  C        10.7261960441        5.6408545433       30.9113012634
  C        11.4300003914        5.6613690593       33.3828875221
  C        11.2684146050        5.7915915060       29.4203786336
  H        10.2223511132        4.6650243371       31.1120161987
  H         9.9450505642        6.3919079631       30.9654719576
  H        10.3742017581        5.8242663047       33.4393867863
  H        11.8596087999        4.7745993093       33.8448968024
  H        11.8008898092        6.4402452544       33.9700377230
  C        10.1698696542        6.0147329019       28.4195455480
  H        11.7307281987        4.8613703095       29.1408621990
  H        11.9736815225        6.6164912773       29.3501825356
  C        10.6875290773        5.7982023678       26.9941817010
  H         9.3390858274        5.3126925857       28.5849183624
  H         9.7975639067        6.9937849217       28.3815044148
  C         9.6306015388        5.0431987689       26.1715379339
  H        11.5968576419        5.2018233364       26.8890550677
  H        10.9344857452        6.7620760267       26.6293087585
  C         8.3541316579        5.8552010907       25.8807315223
  H         9.9397393135        4.7731558408       25.1286738314
  H         9.4371816876        4.0962734687       26.6207169873
  C         7.2086424657        5.0255704463       25.2129677240
  H         7.9821104388        6.3071688274       26.7564481300
  H         8.5726566290        6.6836997336       25.1928391387
  C         6.9194378645        3.7269178492       26.0137986068
  C         7.5691093796        4.3004259073       23.9777204129
  C         5.9648172895        5.9302017502       24.8435674205
  C         7.1518349143        2.6324286232       25.1947923924
  C         6.5231866255        3.3239253841       27.3139028814
  C         7.6626552952        2.9513328856       23.9547297636
  C         8.1066418121        4.9655977242       22.9056377956
  H         6.2323444040        6.5101729795       23.9529381652
  H         5.8126339333        6.5651976966       25.7564535199
  C         4.6703419258        5.1262651559       24.5272980572
  S         6.8577365521        1.1054979687       26.0122156494
  C         6.4296688523        1.9590729322       27.4763442398
  H         6.3939281753        4.0672462917       28.0261043686
  C         8.1477319163        2.3558820187       22.8522306137
  H         8.3839915775        6.0565573797       23.0321314265
  C         8.6242003698        4.3387438199       21.7654903514
  H         4.6839456530        4.6004127304       23.6075256050
  H         4.5388209123        4.3501762473       25.2926500536
  C         3.4094440796        5.9679944405       24.3814598414
  C         5.9045068515        1.2704621583       28.6883223166
  C         8.5687000529        3.0123938392       21.6883363404
  H         8.1443981180        1.2766785034       22.7855265516
  C         9.2014055893        4.7195552883       20.5780769328
  H         2.6951946361        5.4830847842       23.6770302773
  H         3.8091979834        6.8719665606       23.9666649690
  C         2.7929242619        6.3494521480       25.7650049263
  C         5.8732068692       -0.0620275176       28.9492011228
  C         5.3202382534        2.1661554230       29.7282285317
  C         9.0377984026        2.2980382372       20.3981138651
  C         9.3802839240        3.6470485779       19.7787371618
  S         9.5910216540        6.2491760823       19.7754617426
  H         2.0062069798        7.1015277180       25.5682255308
  H         3.4881015524        6.9443271907       26.4112751093
  C         2.0097465106        5.1783325112       26.3982467303
  N         6.2551020980       -1.0558812927       28.0225692775
  C         5.5693911788       -0.5868992018       30.1975255234
  C         4.9768406861        1.6627092975       30.9474233236
  H         5.3408555969        3.2109185351       29.6321496420
  C         7.8473089418        1.5269229325       19.7006905651
  C        10.2629029024        1.4263005282       20.4906356537
  C         9.9317016565        4.0257743899       18.5231649863
  C         9.8404202386        5.3922621271       18.2941800620
  H         1.1429653059        4.9877682615       25.7981296669
  H         2.7393998778        4.3888890820       26.5056417923
  C         1.3871920799        5.6756809761       27.7365364922
  S         6.1479044837       -2.5026666515       28.8195880287
  N         5.7402668245       -1.9458474836       30.3013718079
  C         5.1596701927        0.2270225560       31.3083134764
  H         4.6150246993        2.3166495921       31.7374227418
  H         7.4319186336        0.7434465507       20.3225401452
  H         8.3051422850        0.9594749404       18.9051998205
  C         6.6759507660        2.4385082999       19.1323263476
  H        10.4466233248        1.0189334446       19.4997449784
  H        10.0883031949        0.6247924842       21.1977184858
  C        11.5871693568        2.2334403384       20.9280721732
  H        10.1392894034        3.2496422237       17.8049996852
  C        10.1048381345        6.1256576223       16.9383474043
  H         0.5328774721        5.0727280778       27.7188438048
  H         1.1232724331        6.6687822305       27.4985105767
  C         2.1399459336        5.5649613708       29.1065116426
  C         4.8472045241       -0.4596290937       32.5372763446
  H         7.1061566203        3.2227498037       18.5820569273
  H         6.2112240006        3.0563623637       19.8868542102
  C         5.5509330061        1.6622782756       18.4829377863
  H        11.4927335252        2.9153374729       21.7492079899
  H        11.8513106697        2.9015070758       20.1068853535
  C        12.7988308270        1.3517146833       21.2304153641
  C        10.1330130131        7.5189535252       16.7350019242
  C        10.2420637981        5.3937476997       15.6758041818
  H         2.6746925199        4.6175154068       29.1667738534
  H         2.9259463322        6.3789423926       29.1618698466
  C         1.1353594220        5.6687776481       30.3251697671
  H         5.0217156137       -1.4765620052       32.5502082346
  C         4.5159554800       -0.0224813078       33.8343765612
  H         5.1144522416        1.0407392963       19.2582379040
  H         6.0012803452        0.8611551313       17.8585492228
  C         4.5324127860        2.5254232035       17.7268286317
  H        12.6269370342        0.8376571662       22.1304301141
  H        12.7709814579        0.4840528107       20.5305710993
  C        14.1136125542        2.1414739097       21.1607488383
  N        10.0873603343        8.5003226585       17.7663765726
  C        10.4016937693        8.1855686567       15.5531039208
  C        10.4866786202        6.0614973820       14.4639411136
  H        10.1900267588        4.2691641726       15.6591852009
  H         0.7765219004        6.6878691162       30.4528117593
  H         0.2377252804        5.1250811958       30.1074495538
  H         1.6590836445        5.2175762440       31.1968867432
  S         4.1650456440        1.6208623182       34.2194793283
  C         4.4192805879       -0.9699651445       34.9281048187
  H         4.6069666863        3.4453573368       18.2388833434
  H         4.9298918497        2.7759156393       16.7599140482
  C         3.0162706191        2.1626995729       17.7450605726
  H        13.9816422269        3.1333302139       20.6154706725
  H        14.8461830415        1.5104914593       20.6095178182
  C        14.6841702929        2.6023153014       22.4737223449
  S        10.4681193027        9.9992836437       17.1409540444
  N        10.6425371068        9.5347677019       15.6333709026
  C        10.5980926182        7.4710363922       14.3367457920
  H        10.5549606436        5.4746991238       13.5232895541
  C         3.9669767559        1.0389254000       35.8972948062
  N         4.0498840627       -0.3480600484       36.0049490849
  O         4.4213277590       -2.1976703256       34.7601818921
  H         2.4604455657        2.9011410157       17.2592135466
  H         2.5783696600        2.1300035233       18.7309171569
  C         2.8661997826        0.8209955929       17.0146239070
  H        15.2626287691        3.4694310079       22.2561271514
  H        13.9287935969        3.1438504254       23.0629789809
  C        15.3274441766        1.5637985987       23.3355607078
  C        10.8353988521        8.2075744752       13.1776906541
  S         3.3590528106        1.9227422663       37.3114899836
  C         3.9943502889       -1.0923893922       37.2590601189
  H         1.9138155416        0.7887687918       16.3260014986
  H         3.7509375272        0.6010575215       16.4519540250
  C         2.5942568289       -0.2854756504       18.0227738441
  H        15.5054609989        0.7077138006       22.7377162834
  H        14.7304124527        1.2900450964       24.2164875862
  C        16.5956246092        2.1667900702       23.8625567421
  H        10.8864349060        9.2336774833       13.4065707757
  C        11.3687978117        7.8978765891       11.9668921244
  H         3.4145597207       -0.6679790089       38.0875668320
  H         3.6628398547       -2.0881369796       37.0083105348
  C         5.4423548360       -1.2527766225       37.8122819186
  H         1.9105665389        0.1310251263       18.7847429471
  H         3.5048737605       -0.4535902006       18.6176955030
  C         2.0187572260       -1.5576427667       17.4199661982
  H        16.3998362075        3.1469286731       24.3059046588
  H        17.0650415041        1.5262969951       24.5962797540
  C        17.7347816722        2.3095259835       22.7541745275
  S        11.8287820661        6.2976019241       11.4877393608
  C        11.5855350540        9.0120144810       10.9978241708
  H         5.7126170680       -0.2910636467       38.2432928414
  H         5.6601790749       -2.0012343967       38.6277842173
  H         6.1209596762       -1.5741336736       36.9939899217
  H         0.9259053931       -1.3987620892       17.3388164919
  H         2.1494917909       -2.3233417824       18.1489230448
  H         2.3956996620       -1.7854652660       16.4301097457
  H        18.7333066616        2.3492564366       23.1865280640
  H        17.6638819452        3.1865089038       22.1167399706
  H        17.9183561714        1.4389157148       22.0670544932
  C        12.3805746764        7.1438599779        9.9868236509
  N        12.0783885413        8.4630959959        9.8690922342
  O        11.1677158144       10.1484152207       11.2094430329
  S        13.2629275404        6.3000828472        8.6480147016
  C        12.3949534894        9.2081069584        8.6847497732
  H        12.3061371899       10.2177833167        9.0189847460
  H        13.4268730089        9.1639961998        8.4260993063
  C        11.4409266809        8.7822841076        7.5958749489
  H        11.2475759106        9.5971713518        6.9280353810
  H        11.9888515791        8.1252973188        6.9367131576
  H        10.5341677407        8.2790565579        7.9750690702
  H        21.6150908707       11.4303517315        3.5893475145
  C        22.1337072563       10.4515168246        3.6107792526
  H        21.3014437310        9.7503899464        3.3028163494
  C        22.4689396590       10.0476651440        5.0609716081
  C        23.3711702184       10.5029239123        2.6997240843
  C        21.4464108175       10.4142596236        6.1177688875
  H        22.6739861589        8.9817659928        5.1289632036
  H        23.4234892386       10.5266639652        5.4437431158
  H        23.8406723698        9.5347807022        2.5369925245
  H        24.0874194095       11.0681331242        3.1622305247
  H        23.0769663952       10.9170255212        1.7361916657
  C        21.0849261730        9.2186036581        6.9791009361
  H        21.9274041594       11.0912788717        6.8124560538
  H        20.6138843602       10.8734191065        5.6844622399
  C        20.2494929717        9.6937509760        8.2360951674
  H        21.9897304355        8.6234340811        7.2610632769
  H        20.5403285289        8.4864826410        6.4041216412
  C        19.0538823612       10.5213290955        7.9363692857
  H        20.7348985210       10.2628357879        8.9803901890
  H        20.0058553529        8.8404851639        8.7431649380
  C        18.0137092196        9.8308552006        6.9641192911
  H        18.5723329981       10.7269383738        8.9162394188
  H        19.4741490011       11.4026953712        7.4727750720
  C        16.8006311482       10.7776817412        6.7269318307
  H        17.6655859340        9.0227851703        7.5221705030
  H        18.3567855056        9.4304195930        5.9715202178
  C        17.2446883731       12.0971422784        6.0609469611
  C        16.3139001618       11.4681737525        7.9577118536
  C        15.6250948412       10.1085408445        5.9313971749
  C        16.9302739773       13.1873600919        6.8071003316
  C        17.9705138105       12.4037861477        4.8775294873
  C        16.3466935640       12.8181457560        7.9982642624
  C        15.9096290032       10.7655171785        9.1099517207
  H        15.9768322295        9.9329943337        4.8935799950
  H        15.5792866753        9.0966711930        6.3740704200
  C        14.3278082652       10.9793360202        5.8391329871
  S        17.2939918421       14.6344888470        6.0149153321
  C        17.9968037458       13.7774248322        4.6748520395
  H        18.2701701683       11.6156896580        4.1630611537
  C        15.9024196014       13.4666497672        9.1510942954
  H        15.8549464769        9.7163961045        9.0906568720
  C        15.4702610453       11.3844558329       10.2302907606
  H        14.6366124390       11.8406230751        5.2254326029
  H        13.9399461155       11.3708409265        6.7274862873
  C        13.2059848310       10.3054078116        4.9808674201
  C        18.4122105990       14.4612303325        3.3892567225
  C        15.4818145022       12.7447198158       10.2998787174
  H        16.0241020038       14.5895776955        9.2800657809
  C        14.9973796060       10.9975754960       11.4335787634
  H        12.3492023682       11.0339727631        5.1119974129
  H        13.0065021778        9.2575901815        5.1843048406
  C        13.5303546224       10.5118003874        3.4044506029
  C        18.2227718091       15.8336828329        3.1890408087
  C        18.7539666010       13.6325354614        2.1536603941
  C        15.0540223183       13.4010716407       11.5626606330
  C        14.7516317005       12.0913403793       12.2629700401
  S        14.7451359821        9.4608171073       12.1873937170
  H        14.5812072784       10.2670389175        3.2392161196
  H        13.3531627660       11.5000529866        3.0555475124
  C        12.8517824211        9.4166225607        2.5495550185
  N        17.9502882727       16.8114513510        4.1718865773
  C        18.4144726955       16.4188545408        1.8785533580
  C        18.9483948077       14.2324927468        0.9002082429
  H        18.9805505161       12.5897943709        2.1530392570
  C        13.6575221890       14.0783967502       11.4117112658
  C        16.1010397381       14.2784094483       12.2263641453
  C        14.4038391672       11.6859634691       13.5538546090
  C        14.4199613414       10.3201768286       13.6897486741
  H        13.5403927416        8.5911318478        2.5291467843
  H        12.1191236615        9.0746481157        3.2283319990
  C        12.3731133892        9.6311625973        1.1275302739
  S        17.8560320038       18.2320201534        3.4327418750
  N        18.2592271417       17.8062949044        1.9374102481
  C        18.7680665592       15.6906601827        0.6920353701
  H        19.2808486459       13.6308543416        0.0589545744
  H        13.7050451410       15.0576686523       10.9046958488
  H        13.5166561775       14.3328077928       12.4277989814
  C        12.5144941325       13.1354973370       10.9303455056
  H        16.5619351057       15.0008970105       11.6428377703
  H        15.6086797346       14.7735477377       13.0308832065
  C        17.3167141375       13.5272272142       12.8376743969
  H        14.1246653562       12.3224542338       14.3667185442
  C        14.1892682483        9.4656314496       14.9196920190
  H        11.5689918660       10.3320713533        0.9990158909
  H        11.9748491299        8.6754983151        0.8741157746
  C        13.5784831525        9.9707876122        0.2196419662
  C        18.9034204913       16.3771160774       -0.5375450319
  H        12.8154543945       12.4841894765       10.0083959682
  H        12.2136665222       12.4212844470       11.6681302635
  C        11.2681058653       13.9297151937       10.6206805786
  H        18.0631946099       13.7284558564       12.1038206824
  H        17.1255784673       12.4563818015       12.7923643690
  C        17.5269057816       14.0860470534       14.2386249809
  C        13.9709883819        8.0983244445       15.0469527261
  C        14.1142038545       10.2382080766       16.2046507615
  H        14.1287732476       10.7342707839        0.7588224516
  H        14.1575010740        9.1133754324        0.1982508088
  C        13.1768730998       10.3696663739       -1.2164382962
  H        18.9959249450       17.4279651721       -0.2701257696
  C        19.1364878809       16.0420058412       -1.7892740391
  H        11.5486568335       14.5387502284        9.7658464626
  H        11.0028675535       14.5654109012       11.4871253426
  C        10.0209189212       13.1106873151       10.2467748952
  H        17.4980072492       15.1519785208       14.1245907104
  H        16.7342767408       13.7381001568       14.8653506672
  C        18.8666598925       13.4118935204       14.5920356781
  N        14.0663502949        7.1743638070       13.9827036953
  C        13.6175402611        7.4634713827       16.2269093973
  C        13.8882574057        9.5548084441       17.4457222237
  H        14.1671053044       11.2974096849       16.2483587825
  H        12.9129708082       11.4277312429       -1.2413400069
  H        12.3039955483        9.8372954368       -1.4642425309
  H        14.0831612614       10.1397943207       -1.8800579953
  S        19.3955694541       14.4609507664       -2.4016119339
  C        19.1907401605       17.1268652210       -2.7957248784
  H        10.1736794071       12.4938877475        9.3996511402
  H         9.6594275783       12.4487334516       11.0264113710
  C         8.9284552956       14.0520524980        9.7615343761
  H        18.8277064584       12.3224207371       14.2383450181
  H        18.7459943541       13.4469068569       15.6533459498
  C        20.1085376063       14.1126067785       14.0911354175
  S        13.8819599809        5.7231315309       14.5913663929
  N        13.5321673134        6.0646587845       16.0776724862
  C        13.5344713668        8.1051056088       17.4691355615
  H        13.8934808423       10.1141357595       18.3342389917
  C        19.6793067838       15.2969259646       -3.9231218193
  N        19.7004935592       16.5934030747       -3.9021655866
  O        18.8454703805       18.2938605889       -2.5409890884
  H         8.6812137590       14.7944486094       10.5027605784
  H         9.2218578254       14.5195875627        8.8210656201
  C         7.7560341218       13.1028385133        9.3515259569
  H        21.0684078751       13.6530829877       14.3703901500
  H        20.1250429830       14.0047423842       13.0350326226
  C        20.1332162396       15.5707866546       14.6342612410
  C        13.2159338532        7.2713374164       18.5955030871
  S        20.1285475341       14.5098617079       -5.4232720034
  C        19.6981818229       17.4802877379       -5.0842422209
  H         8.1272909115       12.3464589331        8.7407738951
  H         7.3763688942       12.7201203660       10.3338768144
  C         6.5268039546       13.7477481554        8.5906667073
  H        19.7119188527       15.5838122431       15.6412463856
  H        19.4601810648       16.2225917103       14.1405074470
  C        21.5396410818       16.1711652342       14.5410772285
  H        13.2396671452        6.2602991537       18.3542064264
  C        12.7661568190        7.6383841858       19.8281814636
  H        20.5609232840       17.4666784854       -5.8209441336
  H        19.8325385411       18.4860982530       -4.7164457127
  C        18.2974481839       17.4150635635       -5.7677389331
  H         6.1277834257       13.0942155774        7.8512784554
  H         6.9138146893       14.6592555368        8.0965896548
  C         5.4755031491       14.0860757657        9.6495887298
  H        21.8591491528       16.2980023230       15.5568484231
  H        22.2189601720       15.5115531888       13.9566594260
  C        21.5858081200       17.5178799674       13.8452910577
  S        12.3668174163        9.1815171189       20.5253051884
  C        12.6969383644        6.5212408181       20.8380173856
  H        18.1781551339       16.3577707776       -6.2558387331
  H        18.2294246306       18.1562746548       -6.6286931695
  H        17.3747105802       17.5302924613       -5.2463173341
  H         5.0852023000       13.1582714028       10.2046523950
  H         5.8506590376       14.8401134118       10.3619495777
  H         4.6440649903       14.5510649964        9.1709436222
  H        21.4004804576       17.6489068126       12.7188817276
  H        20.8203619870       18.2212398191       14.2600702610
  H        22.5486604562       17.9421687948       14.1258641030
  C        12.1187299361        8.3325497945       22.0475884632
  N        12.2157378865        6.9854814486       21.9893087077
  O        12.9633817522        5.3466317339       20.5623704297
  S        11.1173595900        9.0123241412       23.3057877476
  C        12.0076119527        6.0824947956       23.0993914129
  H        11.8954354897        5.0830287290       22.6173356709
  H        11.0271195871        6.2123986034       23.6588525056
  C        13.0075589051        6.1335564339       24.2036746574
  H        12.8344391549        5.3719495767       24.9673931391
  H        12.9328561381        7.1561193694       24.5685503646
  H        13.9845311680        5.9998317641       23.6212725232
