352
 i =      700, time =      700.000, E =        52.7112571952
  H        11.5225029409        6.9919815545       32.5151931317
  C        11.4960480992        5.9126075993       32.5107907857
  H        12.3916309135        5.5708372643       32.1899559058
  C        10.3726461610        5.5925300717       31.4577018016
  C        11.2646601721        5.3603251267       33.8943384518
  C        10.7458304531        6.1060000406       30.0529351688
  H        10.4061828852        4.5338842009       31.3620891917
  H         9.3536258192        5.6842920730       31.7970185878
  H        10.6554035881        6.0743880304       34.4338877111
  H        10.7275170582        4.3733919494       33.9186609448
  H        12.2428793201        5.3600628923       34.2846626274
  C         9.7537632434        5.7140080057       28.9618088034
  H        11.7603898770        5.8037712521       29.7533285507
  H        10.8958618954        7.2088230912       30.0451120488
  C        10.5011701389        5.5671510908       27.5883562430
  H         9.1623267691        4.9503586224       29.3260319259
  H         9.0633315351        6.4521000277       28.7712402738
  C         9.5252347203        4.9540609915       26.6317515052
  H        11.4355807209        4.8854319068       27.8842720344
  H        10.9146471943        6.6253789202       27.2045594890
  C         8.3304419633        5.8773904121       26.2422724287
  H        10.1172186271        4.5906947031       25.7194279328
  H         9.0166774867        4.0491557663       27.1603017444
  C         7.1564138154        5.1779815192       25.4914407438
  H         7.8570356535        6.5143745241       26.9597514754
  H         8.8135053275        6.5237265905       25.4160314901
  C         6.8553490884        3.8523946251       26.2104481440
  C         7.6745868963        4.4141138424       24.2039319503
  C         5.8554467898        6.0950982811       25.3897369900
  C         7.1446734446        2.7248157055       25.4675255428
  C         6.2524733655        3.5222942795       27.4426710036
  C         7.6329778787        3.0595341208       24.1856492847
  C         8.0730273658        5.0818287929       23.0792645947
  H         6.1396733391        6.9465570606       24.6181750265
  H         5.6162487273        6.6389967534       26.3304202891
  C         4.6154571411        5.5544431960       24.7451343709
  S         6.8238538006        1.3221714546       26.2933680978
  C         6.2399391104        2.2428172080       27.6843907506
  H         5.9760069540        4.3586535879       28.0302174351
  C         8.1844564302        2.4173479713       23.1057503459
  H         8.0952101281        6.2088003485       23.1248221632
  C         8.4524536364        4.4225831107       21.9666865629
  H         4.7762811766        5.1986156838       23.6878069952
  H         4.3160977615        4.6242979790       25.1989444651
  C         3.3569056708        6.4846637836       24.6879867150
  C         5.8295106803        1.5697983177       28.9714659443
  C         8.5255830994        3.1127325475       21.9517452468
  H         8.1953534407        1.2756207544       23.0428071609
  C         8.8704381031        4.8653020572       20.7536640879
  H         2.6560790701        6.2881481227       23.7802466527
  H         3.5423226317        7.5274682863       24.4605653049
  C         2.6230025656        6.5412227394       26.0528021022
  C         5.9122914911        0.1441610765       29.1662906453
  C         5.4339241624        2.4455099684       30.0405971869
  C         9.0493462512        2.4342987878       20.6898963804
  C         9.2983086957        3.8450576337       19.9695535102
  S         9.2912078535        6.4027140804       20.0837780340
  H         1.8942215023        7.2847644284       26.0691296375
  H         3.3078304887        6.9527384502       26.7184553546
  C         1.8974828217        5.1676213548       26.3745972545
  N         6.3129289993       -0.7788395813       28.2576022524
  C         5.7149252554       -0.3941591089       30.4037782659
  C         5.1713273527        1.8663730568       31.2929275239
  H         5.4305424678        3.4642722698       29.9716139411
  C         7.9756716343        1.6009904620       19.9563826212
  C        10.3298273253        1.6317124196       20.8697311255
  C         9.7990854985        4.2412911885       18.7392158674
  C         9.7951028638        5.5433440327       18.6136506920
  H         1.3245439827        4.9634381010       25.5658488131
  H         2.4158302957        4.2900932334       26.5086243345
  C         0.9946252640        5.3714338154       27.6430927291
  S         6.3153145027       -2.3008539203       28.9247520989
  N         5.8330936398       -1.8240581026       30.3983940694
  C         5.3212753614        0.4143951897       31.5186061570
  H         4.9083928556        2.4903362986       32.0755674072
  H         7.6475548612        0.8634135930       20.5793976474
  H         8.5202820841        1.1068359169       19.2582652339
  C         6.7031937390        2.3495365589       19.4200368808
  H        10.7367256299        1.1742351637       19.9836797673
  H        10.1757516798        0.8315835202       21.5069923284
  C        11.3399286645        2.5248811950       21.5299777919
  H        10.1713940233        3.4275307820       18.1132808812
  C        10.1982992351        6.3909603685       17.3784458645
  H         0.2969189458        4.5368736543       27.6996651583
  H         0.3238129746        6.2386863147       27.5823962026
  C         1.8777459834        5.5573933401       28.8373524414
  C         5.1030547626       -0.2883551920       32.7762038357
  H         7.1788210152        2.9779743602       18.6264432510
  H         6.3219269407        3.1771532138       20.0518386515
  C         5.7146166258        1.4981326057       18.8036307953
  H        11.0542699593        3.1611773900       22.4972072679
  H        11.5311253543        3.3908766757       20.7581546767
  C        12.5010828245        1.7245049551       22.0030122196
  C        10.3085988213        7.7494264817       17.2059484793
  C        10.2796270957        5.5669987894       16.0917445819
  H         2.8212513233        4.8632318109       28.8058112426
  H         2.4622881905        6.4370659484       28.7160691701
  C         1.2434093807        5.5771107668       30.2596124316
  H         5.3043974877       -1.3524672213       32.7501566496
  C         4.7937364396        0.1002245139       34.0306585396
  H         5.2400193940        0.9899564137       19.5172514893
  H         6.2007450520        0.7347471508       18.3755581775
  C         4.7201633408        2.2570103113       17.8528884273
  H        12.0747572977        1.0223241928       22.7650431175
  H        12.6204468454        0.9450706463       21.2063166566
  C        13.7305029211        2.4797587165       22.2633821987
  N        10.1366953933        8.7165782461       18.2254055434
  C        10.5636293791        8.3798175351       15.9567042154
  C        10.5831124870        6.2049739745       14.8708563672
  H         9.9533060978        4.5109489058       16.0328821701
  H         1.9588166235        5.1631944225       30.7985869584
  H         1.0382768964        6.6044337565       30.4624044516
  H         0.2204852006        5.0200912271       30.2112604452
  S         4.4044278608        1.7712971286       34.5494237484
  C         4.6879939506       -0.9014205027       35.0465186172
  H         4.8261525257        3.3659246326       18.2130628382
  H         5.1261182344        2.3057174139       16.8062799480
  C         3.2098457688        1.7640431366       17.8358499567
  H        13.5541993457        3.1843127810       23.0782462105
  H        13.8878270477        3.0101074640       21.4030275022
  C        14.8871497649        1.5197692255       22.6186001022
  S        10.1196497762       10.2223838525       17.5325418891
  N        10.6837311330        9.7602092028       16.0771209847
  C        10.6992310151        7.6972478219       14.8184493166
  H        10.5259489195        5.7525703733       13.9434361800
  C         4.1407592144        0.9908011922       36.1445353365
  N         4.2253838423       -0.3001185477       36.1959413972
  O         4.7347323551       -2.1452309932       34.8384610247
  H         2.6134792485        2.4574534266       17.2430839028
  H         2.9263443506        1.7174950396       18.8394956153
  C         3.1634549391        0.2744102230       17.3138722637
  H        14.7050824349        1.0194202109       23.5281511893
  H        15.1884306865        0.9273279162       21.8113828022
  C        16.0864873613        2.4310454045       23.0164471537
  C        10.8133736130        8.3937325731       13.6024719305
  S         3.4846145040        1.9390346847       37.4976561081
  C         4.1002122668       -1.0739611866       37.3832859044
  H         2.8541267744        0.3393240605       16.3361239686
  H         4.1649214215       -0.1272046265       17.2191905765
  C         2.0881305939       -0.6495175659       18.0826733684
  H        15.7559832909        2.7428474085       23.9943637785
  H        16.1190260538        3.2425307795       22.2475813060
  C        17.4822932185        1.8512289694       23.0934528009
  H        10.4774851677        9.3871274158       13.6730470144
  C        11.4618816591        8.0670500041       12.3981467694
  H         3.2300075276       -0.6779425118       37.9785644275
  H         4.1095536789       -2.1327784681       37.1474605697
  C         5.4275844948       -1.0985628609       38.2122976428
  H         1.2240591034        0.0329016346       18.2576340067
  H         2.5834554634       -0.7333420316       19.1062304651
  C         1.7915728848       -1.8863547628       17.2987551441
  H        18.0069317227        2.3196811458       23.7733007752
  H        17.4073071729        0.8514770374       23.3813080421
  C        18.3466242051        2.1991377168       21.8203025430
  S        12.1908788548        6.5329546544       11.9445269459
  C        11.4508112857        9.0412515824       11.3321520533
  H         5.1996922576       -0.8594577764       39.2500775187
  H         5.7713659101       -2.0512697482       37.9653980243
  H         6.1410553292       -0.2326341383       37.9772860971
  H         0.9260288196       -2.3227357867       17.7365058660
  H         2.7002156862       -2.5152937765       17.3193732523
  H         1.4838337174       -1.6611921497       16.2768927488
  H        19.1176149289        1.4086478014       21.6562703003
  H        18.8335907474        3.1031741877       21.8310277047
  H        17.7056074355        2.0010238889       21.0414885406
  C        12.5397599013        7.2928656051       10.4565222880
  N        12.3163947697        8.5820498929       10.3473238775
  O        11.0033765833       10.1702143452       11.3395338908
  S        13.2726390999        6.3695013956        9.1090300557
  C        12.5352113381        9.3632297743        9.1978701548
  H        12.6282961351       10.4387133689        9.4153437259
  H        13.5140601824        8.8740174441        8.7618647635
  C        11.3948235901        9.1884492683        8.0750196234
  H        10.4494935099        9.3501193307        8.5721398562
  H        11.3861594259        9.7492472477        7.2936719642
  H        11.4760411801        8.1894005577        7.7272374070
  H        21.4598071326       11.0886180499        3.9625295873
  C        22.0800522847       10.2087891420        3.9302257956
  H        21.5005499460        9.3811531065        3.7663774986
  C        22.7959912838       10.0045794917        5.2944039004
  C        23.0530147997       10.4818900991        2.7973650206
  C        22.0284926344       10.5770693918        6.5405870517
  H        22.9995655659        8.9159595866        5.4661063867
  H        23.7587020740       10.4491861030        5.3868204051
  H        22.4378746720       10.6597466153        1.8718127032
  H        23.6902156372        9.6463709889        2.6981411180
  H        23.6018799214       11.4219848824        2.9687228793
  C        21.3016836620        9.4149588655        7.0680869964
  H        22.6625176214       10.8661548710        7.3150945192
  H        21.4795797363       11.3974047777        6.2159330694
  C        20.5206894253        9.7312936211        8.3204180246
  H        22.0149039869        8.7052940428        7.2989776456
  H        20.6577357384        9.1057060431        6.3796418193
  C        19.2529318562       10.5900365708        8.1994383731
  H        21.1703769377       10.0185936613        9.1410445138
  H        20.1839496680        8.7587214111        8.5287034293
  C        18.0613035394        9.7914172566        7.5273883660
  H        19.0879313450       11.2022336196        9.1670996041
  H        19.4510923339       11.3425893054        7.4023359284
  C        16.7545238255       10.6286060519        7.2080625638
  H        17.8153911444        8.9416635686        8.4067690176
  H        18.3088961579        9.2033743289        6.5336799389
  C        17.0376471159       11.9620248199        6.4994229147
  C        16.1930877029       11.3283642431        8.4481159142
  C        15.6538311378        9.8051396261        6.5203376084
  C        16.7455329223       13.0620938237        7.2875506597
  C        17.4793035130       12.3250602150        5.2540217644
  C        16.2676445097       12.6700139582        8.5438618991
  C        15.8093596793       10.6085042371        9.5446433510
  H        16.0899941825        9.2427781435        5.6432605714
  H        15.2913951584        9.0985950113        7.0909456371
  C        14.3028523925       10.5634391866        6.0433811744
  S        16.9449868149       14.5477906777        6.4867211859
  C        17.5082312875       13.6574280015        5.0237345311
  H        17.7243595670       11.6242332265        4.5453873378
  C        15.8104864633       13.2774454873        9.6517138589
  H        15.7241693726        9.4323915807        9.4423514757
  C        15.4036357174       11.1955392243       10.6898052318
  H        14.7292165843       11.4121570659        5.6765884797
  H        13.8103111780       10.9135754495        6.8900561826
  C        13.4760002474        9.7703286519        5.0847187394
  C        17.9722452601       14.2991113812        3.7616677530
  C        15.3616276195       12.5530384889       10.7362106240
  H        15.7694463529       14.4416527989        9.6859196216
  C        14.9928804331       10.8058858680       11.9372455417
  H        12.4044861379       10.1201840743        5.0047169076
  H        13.4517824448        8.7538894725        5.3509938360
  C        14.0389630228        9.8935806391        3.6337609594
  C        18.0293989488       15.6662966429        3.5514297554
  C        18.3942026004       13.3027296440        2.7014384792
  C        14.8755291559       13.2263706073       11.9678590748
  C        14.5271195892       11.8873206036       12.6620030167
  S        14.6813982685        9.3602795500       12.7703617871
  H        14.7359072756        9.1594966275        3.5018255687
  H        14.4285746538       10.7637478171        3.6281457010
  C        12.9492022945        9.8912546155        2.5303295310
  N        17.7390916250       16.6413878888        4.4177375334
  C        18.3057480012       16.2444738097        2.3074228894
  C        18.7224869000       13.9151799507        1.5004263321
  H        18.4285070667       12.2450093533        2.6885862077
  C        13.6484136551       14.0352737894       11.8293737866
  C        16.0007937282       14.0677088401       12.8000423158
  C        14.1146472520       11.5606817663       13.9709021494
  C        14.2843926977       10.2736357938       14.1948959833
  H        12.3223113865        9.0553322660        2.6982709903
  H        12.3328826357       10.5958368753        2.7678897743
  C        13.4825451758       10.0587714083        1.1603673241
  S        18.0690947514       18.1495103266        3.8259959419
  N        18.2658119599       17.6400495998        2.3014752641
  C        18.6629733206       15.4379438333        1.2510625004
  H        18.9704459801       13.3446339240        0.5948768537
  H        13.7203085136       14.8755451020       11.1714480574
  H        13.3630835166       14.4231383236       12.7553180377
  C        12.3574825934       13.2029790438       11.2659584838
  H        16.3715374104       14.8406722490       12.1635338040
  H        15.3772977882       14.3504490733       13.6148828326
  C        17.1578424834       13.2170865621       13.2833498258
  H        13.7485222350       12.3366582399       14.6967426433
  C        14.0288507633        9.5493083646       15.5220792890
  H        14.2544866589        9.3391609010        0.9908971212
  H        13.8452716089       11.0226636840        1.1026362848
  C        12.4740802356        9.9066366686        0.0440164132
  C        18.9145425503       16.0465632427        0.0112664141
  H        12.7244938004       12.6879338005       10.3296442786
  H        12.0484719670       12.3771452319       11.9437869785
  C        11.2731623508       14.0438400058       10.7774106507
  H        17.5946813581       12.7389176875       12.2975005050
  H        16.8143645401       12.3172684851       13.9989981892
  C        18.1555158415       14.0130416074       14.1103922008
  C        13.9176194870        8.1362360180       15.6923119068
  C        14.0599663753       10.3939901171       16.6857252162
  H        12.0643963173        8.8031374599       -0.0997804614
  H        11.4901411500       10.3732027910        0.3886674150
  C        12.8780319633       10.4288451221       -1.3338497787
  H        18.8960851625       17.0804792204       -0.0283654051
  C        19.2493260961       15.7120253837       -1.1911240643
  H        11.7594486134       14.7357181833       10.0755993636
  H        10.9069902012       14.5032207627       11.6626944171
  C        10.0760461748       13.2655680525       10.2374163908
  H        18.7728977175       14.5183297033       13.3602878700
  H        17.7762491918       14.7930058386       14.6809033477
  C        19.1206094804       13.1910550097       15.0566285677
  N        14.0579207799        7.2253061679       14.6130477705
  C        13.7171601471        7.5378649605       16.8696788300
  C        13.7880186262        9.7313975816       17.9132799652
  H        14.2780246360       11.4756634987       16.7001310287
  H        12.1755345563       10.1250349092       -2.0800590657
  H        13.7901741143       10.0222258722       -1.7117039155
  H        12.9279191468       11.5217781955       -1.5100789355
  S        19.6077557436       14.0603236911       -1.7624059051
  C        19.3012378406       16.7395978495       -2.2749314226
  H        10.4307062101       12.5222733737        9.5717397902
  H         9.5647813715       12.8674333815       11.0417008616
  C         9.0209231733       14.2578678135        9.7044721892
  H        19.1650356924       12.1601255038       14.7350018503
  H        18.6975822323       13.1352744900       15.9956210436
  C        20.5172157694       13.8096808843       14.9965044483
  S        14.1032405047        5.6623673056       15.2656013914
  N        13.7042774995        6.1221059072       16.7590916307
  C        13.6026444391        8.2270909053       18.0540019365
  H        13.6994505245       10.3253450612       18.8851118888
  C        19.8562678750       14.8651307497       -3.4131904908
  N        19.7343470501       16.1974745347       -3.4787874791
  O        18.9924666132       17.8858701129       -2.0695060724
  H         8.8145573672       14.8919457461       10.6281105722
  H         9.3993895187       14.9666102777        9.0255686813
  C         7.8639710041       13.4660349296        9.1728062245
  H        21.1983715577       13.1905313653       15.5994335282
  H        20.8225381024       13.6640556561       13.9546908845
  C        20.5603813147       15.3568771280       15.2685293325
  C        13.2666019376        7.4969465721       19.2230645246
  S        20.4347831653       13.9786710987       -4.9044170315
  C        19.7385193815       16.9276891186       -4.7361008447
  H         8.0805030486       13.4228864861        8.1910244675
  H         8.0391791384       12.4815942334        9.7074738328
  C         6.6152142717       14.1875450420        9.5062183504
  H        21.3230086458       15.3776235566       16.1923183985
  H        19.6373040983       15.7729265138       15.5137151024
  C        21.2522141600       16.0753930498       14.0471500545
  H        13.1611933505        6.3519122561       19.2302774822
  C        12.5983691286        7.9720632279       20.3292318117
  H        20.5489641389       16.6119111333       -5.2774820860
  H        19.9620559369       17.8778110984       -4.5754290666
  C        18.3892896808       17.0440742970       -5.3989188348
  H         5.9316485138       14.0267431985        8.6158614211
  H         6.4545863919       15.2615050951        9.6511410553
  C         5.7931812256       13.5477848870       10.5800861287
  H        21.9410539547       15.4918727847       13.6307526983
  H        20.6219239303       16.4446714964       13.3237236014
  C        22.0870824535       17.2883683179       14.5460791511
  S        11.9530200081        9.5554008834       20.6870267188
  C        12.3890476091        7.0069634647       21.4212301830
  H        18.1127217240       17.9838612832       -5.8208143384
  H        17.5049073536       16.9348720042       -4.7624404271
  H        18.3404368373       16.3829598891       -6.1483992490
  H         4.9787438025       14.2287883450       10.7406622992
  H         5.2693556190       12.6457462529       10.1792488028
  H         6.3436729212       13.3402055427       11.4242424869
  H        22.4726908399       17.8856861315       13.6460159563
  H        21.4156497461       17.9773426581       15.2093737270
  H        23.1233935738       16.9336032173       15.0469835257
  C        11.2208319984        8.9122079256       22.1038832018
  N        11.6158434647        7.6298869418       22.3774851405
  O        12.6970827129        5.8106201125       21.4704238543
  S        10.6199172327        9.8366235450       23.4570634753
  C        11.4947220491        6.9128792965       23.6825286543
  H        11.0669032861        5.9023028585       23.6578367138
  H        10.6422345408        7.4830222884       24.0821775503
  C        12.6670820909        7.0764182419       24.6241527054
  H        12.3193562457        7.4356328895       25.5668265366
  H        13.5002190093        7.7470475860       24.3912852733
  H        12.8976994305        6.1069916383       24.9139574317
