352
 i =    19300, time =    19300.000, E =        25.3926242682
  H        12.0951181836        6.5385956996       31.5189858235
  C        11.2140800113        5.9619779611       31.8091816743
  H        11.5658444625        4.9829446730       31.5141834542
  C         9.9802844179        6.3628770749       30.8756459074
  C        10.9053457443        6.1430773393       33.2582182458
  C        10.3994294262        6.6427998233       29.4596161384
  H         9.2757885419        5.5666231116       30.9742656560
  H         9.5086083692        7.2977232000       31.2467254464
  H        10.2163827631        6.9613880516       33.3357607870
  H        10.5740911001        5.2941530163       33.8076712415
  H        11.8162302277        6.6108750599       33.7603280757
  C        10.8330354325        5.4446381111       28.6142031394
  H        11.3624859434        7.2264114339       29.6409731855
  H         9.5769841710        7.2722893202       28.9943856988
  C        10.8392788631        5.8637781228       27.1553841541
  H        11.8855165203        5.0333750258       28.8777141085
  H        10.0747245133        4.6993814423       28.7938787197
  C         9.7114332483        5.3587833338       26.2479866344
  H        11.6981459165        5.4599385175       26.6601952707
  H        10.9255303499        6.9694185298       27.1402092682
  C         8.4658476265        6.2618852284       26.2104495636
  H        10.2042143992        5.4213815356       25.3080030410
  H         9.4052123251        4.3469738265       26.3778629358
  C         7.2045594468        5.5800221032       25.4424295372
  H         8.1629878638        6.4550827841       27.2346862407
  H         8.6915549938        7.2477350283       25.7737671967
  C         6.8842304891        4.2870696582       26.1742829326
  C         7.6878097773        4.8725839074       24.1843553305
  C         6.0410254716        6.6080867712       25.2757980108
  C         7.2244987396        3.1692404124       25.3486303437
  C         6.4498289272        3.8159991341       27.4790692196
  C         7.7027746466        3.5267673857       24.0796353887
  C         8.1708072853        5.5958993510       23.0274859982
  H         6.3024683615        7.3952286099       24.5136836487
  H         5.8182281081        7.0835501298       26.2593482166
  C         4.7403982245        5.8441686049       24.8580477807
  S         6.8060266194        1.6123096511       26.0883967456
  C         6.3235160483        2.4243154690       27.5709973099
  H         6.3172964384        4.5169586415       28.2677781992
  C         8.0722928601        2.9157945449       22.9562929563
  H         8.1688107290        6.7263217142       23.0602623403
  C         8.5338703158        4.9261905439       21.8158092786
  H         4.8942854903        5.4835330823       23.8262031540
  H         4.4704693452        5.0159736569       25.4289353844
  C         3.5301660404        6.8375238789       24.8419210917
  C         5.7499064922        1.7157104524       28.7886685539
  C         8.4858346344        3.5339374371       21.8064289167
  H         8.1939978084        1.8534581328       22.9772566203
  C         8.8965658597        5.2425130523       20.5200846444
  H         2.8261518879        6.6371729510       24.0019916417
  H         3.8763159394        7.7842693383       24.5016664438
  C         2.6962134609        6.8502358788       26.1462893177
  C         5.8247245690        0.3450065834       29.0679108937
  C         5.1742085353        2.4951403992       29.8884254436
  C         8.8427552055        2.7198399141       20.5546137280
  C         9.0982514012        4.0603632501       19.7812116984
  S         9.3292135833        6.7257056560       19.6665877679
  H         2.0547218195        7.7460317963       26.0555234391
  H         3.3600830724        7.0251160635       26.9527716545
  C         1.8532273768        5.6461000424       26.4009081256
  N         6.0920613129       -0.5763675500       28.1299955736
  C         5.5978459368       -0.2195157573       30.2908834936
  C         4.9115316939        1.9824587896       31.1431089645
  H         4.8859359996        3.5139222405       29.6950396025
  C         7.6585567811        1.8582133095       20.0340724467
  C        10.1149639448        1.7986419277       20.8257895166
  C         9.6485537871        4.4280214043       18.5129127806
  C         9.6819471109        5.7671510544       18.2875304691
  H         1.0780479840        5.7057948355       25.6832548631
  H         2.1940276172        4.7121898417       26.1361048169
  C         1.2874013201        5.6334793924       27.8658393212
  S         6.0762745951       -2.0738309887       28.7602054976
  N         5.5823784801       -1.6266965208       30.2518387008
  C         5.1460270102        0.5516043096       31.3746853967
  H         4.4268900090        2.6660495601       31.8962949295
  H         7.5104800542        0.9766489969       20.7307756913
  H         7.8725951721        1.5561168809       19.0048518200
  C         6.2694114845        2.5202347895       20.0619524384
  H        10.2992785384        1.2711348901       19.9336734522
  H         9.8867099719        0.9528702571       21.5016801424
  C        11.3985905707        2.5626018357       21.1790759001
  H         9.8604801469        3.5804824212       17.8876911681
  C        10.0440331265        6.3851174490       16.9753503588
  H         0.4056422253        4.9311797213       27.9395096057
  H         0.8405472950        6.5888030596       28.2790173859
  C         2.3438803298        5.3749590054       28.9911287497
  C         4.8764627639       -0.1523587795       32.6027912595
  H         6.2637211414        3.5047006095       19.5520340511
  H         5.9830612773        2.6430936220       21.1387584680
  C         5.3299753202        1.5518984506       19.4716836963
  H        11.2375324650        2.9764252524       22.1947977438
  H        11.5928221180        3.4455359440       20.5876864975
  C        12.6705806647        1.7209400088       21.2203522096
  C        10.1853308646        7.8460314339       16.7679434431
  C        10.2792155654        5.5552065692       15.7854368980
  H         2.7232695266        4.3522255568       28.9712273530
  H         3.2999011754        5.8055488554       28.7811007542
  C         1.7126088897        5.5930384864       30.3942646164
  H         5.2206856541       -1.1943059266       32.6158873230
  C         4.6637255258        0.2780676844       33.8858044422
  H         5.1776311412        0.7299005320       20.1591353176
  H         5.7684553964        1.1237008557       18.5654814566
  C         3.9952375401        2.2385403520       19.0035808894
  H        12.7285703766        1.3320027825       22.2021500455
  H        12.6390998080        0.9348731019       20.4108037123
  C        13.9179499384        2.5845162501       20.9632023295
  N        10.0842791029        8.8549279339       17.7494604597
  C        10.3821928121        8.3685317628       15.5200074062
  C        10.7070004950        6.1115234143       14.6283608548
  H        10.2371386803        4.5151504748       15.8904673954
  H         1.4199259641        6.6382922998       30.6411621085
  H         0.8923691936        4.7750052631       30.5971473118
  H         2.4844217179        5.3666350098       31.2043903593
  S         4.2372294277        1.8193405350       34.3497318989
  C         4.6704679042       -0.7538157793       34.9280765211
  H         3.7714140909        3.0084185892       19.6837175394
  H         3.9357128834        2.5722899901       17.9697865526
  C         2.8912182348        1.1632396831       19.1423828677
  H        13.7263981500        3.4625712005       20.3171182204
  H        14.6665074683        2.0201705503       20.3765797892
  C        14.5493614535        3.1617800057       22.2215749527
  S        10.1068301977       10.3006513481       17.0199775732
  N        10.2726588666        9.7945489735       15.4917228509
  C        10.6642590705        7.5767214511       14.3596874008
  H        11.0736305928        5.4408278885       13.7774220874
  C         4.1430161908        1.1915143464       36.0742897238
  N         4.4118183539       -0.1483278831       36.1358750158
  O         4.8410828120       -1.9401488454       34.7898297055
  H         1.9209651588        1.5354589765       19.1162258676
  H         2.9559704932        0.4957840810       19.9449188811
  C         2.9775400508        0.2452972136       17.8410681222
  H        15.3025610595        3.9309360415       21.9498089729
  H        13.7814454285        3.6779172029       22.7993612926
  C        15.1695807159        2.0849988407       23.0446244731
  C        11.0016551208        8.2180450579       13.1594425011
  S         3.8040586458        2.2087818597       37.4457993208
  C         4.6158399966       -0.8766394029       37.3888542276
  H         2.6704143169        0.8726597353       16.9979820497
  H         4.0092231404       -0.0982417580       17.6658002224
  C         2.1493490128       -1.0617800679       17.8716905828
  H        15.0187632130        1.1676846468       22.5969418747
  H        14.6561037981        2.0069933401       24.0199674526
  C        16.6258536843        2.4159701721       23.4939406433
  H        10.7118306711        9.2617204463       13.1128353766
  C        11.6876194680        7.7740238500       12.0402842130
  H         3.8175573613       -0.5055039532       38.0514145030
  H         4.5066852717       -1.9390864758       37.1481832650
  C         6.0623555727       -0.5846414006       37.8982604725
  H         1.2312261709       -0.7865811144       18.4747386185
  H         2.6301505273       -1.8138425372       18.4679122224
  C         1.8293921811       -1.4596711722       16.4455732908
  H        16.5127289321        3.2917776343       24.1436433623
  H        16.8590946933        1.5461334202       24.1347664034
  C        17.5338937270        2.6196523915       22.2989628369
  S        12.5006460903        6.3110042390       11.9090959748
  C        11.7169745749        8.5758046818       10.8504681969
  H         6.2543682105       -1.0914626138       38.7976152544
  H         6.7943360749       -0.9181453398       37.1908976784
  H         6.1813602158        0.4994440329       38.1181181368
  H         1.9260406525       -0.7097083048       15.6507279626
  H         0.8436264232       -1.7793637859       16.4634135878
  H         2.3346779432       -2.3895985895       16.1670674012
  H        18.5614751874        2.5917402890       22.6238568284
  H        17.4545550571        3.6059500035       21.9295651596
  H        17.3693129473        1.7827858542       21.5949348804
  C        12.7367213619        6.7030895076       10.2194869627
  N        12.1560650352        7.8861722346        9.8503330722
  O        11.4015443922        9.7394933449       10.8972868655
  S        13.6744726763        5.7159497128        9.1036868841
  C        12.4999478382        8.4706184847        8.5669687235
  H        13.4668710728        8.9500874966        8.6363135666
  H        12.6875652560        7.6780353674        7.7790560919
  C        11.3334986242        9.3255748169        7.9872911232
  H        11.2095329617       10.4006512418        8.2440629967
  H        11.4117475351        9.4276457860        6.9279970735
  H        10.3315185319        8.9302318655        8.3417753589
  H        20.9322380441       10.1319412632        3.3641013065
  C        21.8393959601        9.5539855746        3.4421366029
  H        21.3120812018        8.5971337689        3.6833847392
  C        22.6513032307       10.1302760370        4.6210999403
  C        22.5827249312        9.3703961543        2.0843087214
  C        21.7464881527       10.6665507366        5.7668533369
  H        23.3837562056        9.4508158582        4.9927129687
  H        23.2170840845       11.0657559118        4.2864821472
  H        23.5291495025        8.8103668399        2.1303635986
  H        22.7602367516       10.4362430407        1.7248357943
  H        21.8510881706        8.9604742146        1.3323504052
  C        21.0071885963        9.5401616894        6.4633711699
  H        22.3433234151       11.1927350871        6.3820355907
  H        21.0135123120       11.3513656452        5.3733730074
  C        20.3457231839        9.6997616322        7.8324267460
  H        21.7017099626        8.7163164568        6.6973488858
  H        20.3939887259        9.0326018798        5.7540900317
  C        19.2085140982       10.6700767153        7.5876180424
  H        21.0275163001       10.0869368438        8.5937443638
  H        20.0664745044        8.6587561747        8.0754044768
  C        17.9846397697        9.8985969357        6.9537952263
  H        18.8883296223       10.9981103540        8.6031010611
  H        19.4238818115       11.5021857974        6.9134835836
  C        16.7147311674       10.7017464141        6.7449708555
  H        17.8693155985        9.0375212286        7.5509255377
  H        18.3494263101        9.4461791627        5.9997739569
  C        17.0507680642       11.9926085224        6.1229950983
  C        16.2268156017       11.3855425995        7.9957619947
  C        15.5928298661        9.9233048007        6.0308589922
  C        16.7552372360       13.0489622475        6.8988664351
  C        17.5540243495       12.3830863645        4.8773843165
  C        16.3120962651       12.6970284424        8.1216645365
  C        15.8590197755       10.6636898071        9.1661413594
  H        16.0963431431        9.2916504345        5.2785665161
  H        15.2270385635        9.2470860402        6.7808960810
  C        14.4367071905       10.6864785160        5.4045631740
  S        17.1066477089       14.5867436128        6.1220445328
  C        17.6282807711       13.7574669037        4.6702177815
  H        17.6164596347       11.5542242807        4.1089849507
  C        15.9579167971       13.2918702927        9.2923743752
  H        15.7827556687        9.5960494262        8.9627138792
  C        15.4712937381       11.2573405873       10.3190056701
  H        14.7478677038       11.4902105582        4.6774153646
  H        13.9450561768       11.2618807519        6.1921779605
  C        13.4679194271        9.8349421500        4.6286443427
  C        18.0058061181       14.4426720600        3.3745826104
  C        15.5271803083       12.5755302575       10.3980276474
  H        15.7732420362       14.3719599017        9.3857238657
  C        14.9754150680       10.9118394768       11.5921145515
  H        12.4992699179       10.2299554850        4.8961538598
  H        13.4171055283        8.8046827212        4.9386751161
  C        13.6451827735       10.1503918653        3.0956696187
  C        18.0522972677       15.8775489470        3.1643446978
  C        18.3734851489       13.6081024941        2.1710460453
  C        14.9540878944       13.3302605105       11.5324164945
  C        14.7060259678       12.0298572852       12.3006804118
  S        14.6789562988        9.4780407336       12.3704266435
  H        14.7880169550       10.2104877146        2.9236293100
  H        13.2614376176       11.1522182877        2.9107746893
  C        13.1551256527        9.0643541326        2.1359360762
  N        17.8001307423       16.9454402333        4.0715483989
  C        18.3562538804       16.3973718116        1.8816815496
  C        18.7402222010       14.1515686916        0.9148690730
  H        18.3138437358       12.5329712566        2.2707274186
  C        13.6827271340       14.1482748024       11.1977494162
  C        16.0027623553       14.2322058944       12.3560304204
  C        14.2939475410       11.6843502314       13.5767272778
  C        14.2873114965       10.3836689377       13.8691644342
  H        13.9784344809        8.3041279656        1.9641435000
  H        12.4109841569        8.5099778765        2.6584485705
  C        12.5814044921        9.3953344977        0.7649286744
  S        17.8926144130       18.3870285747        3.2883848632
  N        18.2480408490       17.7614594232        1.8143590254
  C        18.6084279529       15.6193023877        0.7218504089
  H        19.0067950861       13.5104967202        0.1970332266
  H        13.8722549205       15.0984069457       10.6618953946
  H        13.3089499298       14.4532256456       12.1675606524
  C        12.5000776830       13.4041837074       10.5421668483
  H        16.3802038377       15.0188480837       11.6762147959
  H        15.4747062814       14.7943031460       13.1449383610
  C        17.2629573483       13.5404842849       12.8882074790
  H        14.0523767333       12.5233705407       14.2428827285
  C        13.9366583105        9.7726238829       15.1396178604
  H        11.5784841214        9.9236477390        0.9138609508
  H        12.4168034253        8.5195746545        0.1271234494
  C        13.5571789024       10.3127433488        0.0155080700
  C        18.8854055436       16.3569742750       -0.4670246085
  H        12.7465937104       13.1644738287        9.5383510775
  H        12.4403262628       12.4770968786       11.1257166870
  C        11.1484331614       14.0316493859       10.6545701368
  H        17.6561243152       12.9423285265       12.1359440045
  H        17.1020755491       12.8959296072       13.7478677655
  C        18.3640566675       14.6381023220       13.1641522217
  C        13.7858684985        8.3768973305       15.3530454354
  C        13.8648460449       10.6939777820       16.3251639269
  H        13.7225801407       11.2699702636        0.4546190575
  H        14.5307935474        9.8256253099       -0.1180498373
  C        12.8203501333       10.4959192924       -1.3459632876
  H        19.0503460279       17.4028403559       -0.3300161369
  C        19.1029148271       15.9338991802       -1.7041245200
  H        11.1844658282       15.0820308748       10.2917926572
  H        11.1301174802       14.0935635469       11.7257177711
  C        10.0125718221       13.2403983486        9.9843068590
  H        18.6162525136       15.1359146251       12.2097398925
  H        18.0904289122       15.3745193821       13.9251876556
  C        19.6089522704       14.0265661920       13.6964283238
  N        14.0049270966        7.3757544122       14.4598689729
  C        13.5918763441        7.8827865740       16.6026213730
  C        13.5660570016       10.1434140440       17.5554571943
  H        13.9530567232       11.7359467550       16.1889729033
  H        13.2099201529       11.3448914766       -1.8934232789
  H        11.7660799097       10.6580665542       -1.2061635413
  H        12.9594209720        9.5461529638       -1.7629489299
  S        19.3035062200       14.3524298069       -2.2517665874
  C        19.2480329645       17.0289901745       -2.7696195599
  H        10.2688584500       13.0254896794        8.9085006046
  H         9.9371136763       12.3487689654       10.5263628957
  C         8.6635913059       13.9561214993        9.9189235517
  H        20.2202992880       13.7034568513       12.9260478671
  H        19.3314300590       13.2340228630       14.4395584713
  C        20.4697607321       15.1142568025       14.4636405624
  S        14.0477655891        5.9072113517       15.1785687456
  N        13.5509470810        6.4077415198       16.6510936168
  C        13.3945643130        8.6665690297       17.7510658863
  H        13.4568930287       10.8854444556       18.3701220090
  C        19.5820559386       15.1070848921       -3.8335001653
  N        19.5403061134       16.4455758865       -3.9368948059
  O        19.0910102368       18.2674488836       -2.4900832746
  H         8.3679622412       14.4375163680       10.8467956654
  H         8.6940457132       14.8633172607        9.2715087852
  C         7.4904426301       13.0488169536        9.3330651545
  H        19.9959839692       15.5488649060       15.3182297040
  H        21.2610536481       14.5461622764       14.9961379547
  C        21.0107875922       16.1840826282       13.5322913772
  C        13.1366711809        8.0231020318       18.9953483600
  S        20.0056302684       14.2040109453       -5.3342673831
  C        19.6673261378       17.1254198981       -5.2394993892
  H         7.7567273525       12.6519823415        8.3616386252
  H         7.1906671463       12.1357736684        9.9108010975
  C         6.2047138020       13.8465247214        9.3485533642
  H        20.1639176026       16.6950212649       13.0581816092
  H        21.4989075343       15.5132608459       12.7495789227
  C        22.1417401167       17.1380787233       14.0231774006
  H        13.2943725722        6.9549335886       18.9090118706
  C        12.5229951567        8.2765066585       20.1821373380
  H        20.3766173422       16.7507689325       -5.9947129114
  H        20.0548818658       18.0831464338       -5.0753484111
  C        18.2134273352       17.2084377918       -5.7385938780
  H         5.5116146382       13.5870356940        8.5559146464
  H         6.3267700871       14.9065032109        9.2006023813
  C         5.4533537801       13.7732365565       10.6641229866
  H        23.0397044875       16.6180278045       14.3129316910
  H        22.2966806564       17.8803003118       13.2003200677
  C        21.6408041496       17.8093251256       15.3168562572
  S        11.9386834897        9.8968487071       20.6735629516
  C        12.4435243674        7.2587113720       21.3011385854
  H        17.5229100586       17.0524018512       -4.9039292331
  H        18.0798030088       16.2542472198       -6.3591260963
  H        18.0036226375       18.1379678550       -6.3160678050
  H         4.6256008898       13.0432751928       10.4649640231
  H         5.9963791299       13.4170393516       11.4890266557
  H         4.9966367253       14.8328372928       10.8541224048
  H        20.5284931839       17.9142968318       15.2997704681
  H        21.9873317415       17.2804860126       16.2188417034
  H        21.9417052813       18.8279976692       15.2460878973
  C        11.6173438502        9.1683504303       22.2309995169
  N        11.7802347256        7.7992935554       22.3237362266
  O        12.9724770207        6.1539772800       21.2552651282
  S        10.7597291686        9.9611051897       23.5909116111
  C        11.5485300566        7.0917460677       23.5333820209
  H        11.2533914519        6.0858520150       23.2884418852
  H        10.7318995434        7.4157430834       24.2097636868
  C        12.7621174993        7.0437027895       24.4061094600
  H        13.6516332392        7.1194167698       23.7430063598
  H        12.8903685053        6.0274638072       24.8164723515
  H        12.6925345249        7.5565367073       25.3520987328
