352
 i =     5800, time =     5800.000, E =        29.7790593096
  H        11.8099781084        5.0749649605       32.2245553799
  C        10.8505301457        5.5192747399       32.2052672402
  H        10.2674134440        4.8556959653       31.6380863835
  C        10.9652017089        6.7833933315       31.3588820624
  C        10.4170921550        5.8878413752       33.6081089206
  C        11.3231345413        6.4521633565       29.8597816971
  H        10.0593292371        7.3617725034       31.4903823028
  H        11.8153374503        7.3647387593       31.7542447480
  H        11.2301618523        6.4240179332       34.0889699454
  H         9.4812447895        6.5152363114       33.5690113123
  H        10.1822069897        4.9646351374       34.1991857568
  C        10.2283145795        5.8375527341       29.0123099616
  H        12.1865777875        5.7578045485       29.9874488807
  H        11.7549636684        7.3506776964       29.3797458327
  C        10.6372410384        5.8618748430       27.5878514579
  H        10.1553643818        4.7533816076       29.3493350715
  H         9.2176805758        6.2841135606       29.2981999255
  C         9.7103189879        5.1989592351       26.6370902571
  H        11.5374352080        5.3618271233       27.3711021091
  H        10.7215433601        6.9437957699       27.2916713067
  C         8.5389375657        5.9625253755       26.1487906133
  H        10.2213056441        4.8559721800       25.7514656578
  H         9.4997051915        4.2700925094       27.1729322726
  C         7.5041175458        5.1590512422       25.3266719429
  H         7.9625275725        6.4953981183       26.9445116684
  H         8.9448442700        6.8603564239       25.6345226225
  C         7.1974602256        3.7602096246       26.0271813706
  C         7.8667951221        4.3525799799       24.1020124606
  C         6.2366554628        6.0560222398       25.2618360777
  C         7.2586243061        2.6659148148       25.1661087817
  C         6.6724793659        3.3481178846       27.2560166216
  C         7.7220050715        3.0174683121       23.9634345509
  C         8.3826683965        5.0800749792       23.0666885514
  H         6.4382186162        6.8831408928       24.5285069239
  H         6.0326720139        6.6136857176       26.1476274169
  C         5.0403793291        5.2753523291       24.8323881148
  S         6.7312070593        1.1490612724       25.7973333840
  C         6.5034834140        2.0014481681       27.3430964187
  H         6.3905794528        4.0732622441       27.9401775921
  C         8.0189619172        2.4466205779       22.7649381641
  H         8.5853083514        6.1403853783       23.2222209265
  C         8.5426808115        4.5243513427       21.8451977409
  H         5.2063525699        4.6813207062       23.8611625062
  H         4.7873777848        4.5377492783       25.5221739175
  C         3.7993813255        6.0538898197       24.6268374033
  C         6.0295909851        1.3144038230       28.6579006024
  C         8.4289630329        3.1846925193       21.7010430783
  H         7.7761109474        1.3479120023       22.5825878711
  C         8.9256540416        5.0031026305       20.6334425483
  H         3.1716668248        5.6526374998       23.7591362063
  H         4.1192724164        7.0130495094       24.2859609361
  C         2.8501654197        6.3613585047       25.7660020039
  C         5.9386912173       -0.0302463425       28.9057103365
  C         5.4160958479        2.2145758352       29.6732150116
  C         8.8067351644        2.5075258999       20.4768524249
  C         8.9824283365        3.9020251082       19.7572312974
  S         9.1213858622        6.5539920470       20.0034226822
  H         2.3504038957        7.3017487941       25.5789490511
  H         3.5004520108        6.3864891181       26.6692880358
  C         1.7913475652        5.3796227440       26.1828125405
  N         6.2758846482       -1.0597523233       28.0293848977
  C         5.6658539870       -0.5435488368       30.2261722275
  C         4.9658070755        1.6939750856       30.9081635131
  H         5.2469816581        3.2651549314       29.4629933341
  C         7.6854325909        1.7609954715       19.6547599424
  C        10.1153499303        1.6762749840       20.4848799951
  C         9.4135432775        4.3778452967       18.5262857414
  C         9.5722062470        5.7684605371       18.4840197128
  H         1.2292442862        5.2330319458       25.3349048370
  H         2.2196293737        4.4734845343       26.4589714738
  C         0.9647119463        5.7645296455       27.4776489701
  S         6.3622893622       -2.4473749505       28.8499096010
  N         5.7649546259       -1.9622521451       30.3086420738
  C         5.1807363750        0.3158951900       31.2674045417
  H         4.4005778065        2.3626063554       31.5428630203
  H         7.4128844310        0.8800835322       20.1986961488
  H         8.0710869200        1.4553453117       18.7269513041
  C         6.3796438168        2.5275426516       19.4734003392
  H        10.1592827453        1.1614043996       19.5402112691
  H         9.9799915557        0.9210931333       21.2793561833
  C        11.4295801157        2.4184769655       20.9049034738
  H         9.7753435318        3.7774278310       17.7656441625
  C        10.0482422691        6.5222856025       17.2407200207
  H         0.3059943516        4.9073927170       27.5228289568
  H         0.3490202234        6.6850205612       27.3213319601
  C         1.9026829073        5.9568511965       28.6725535449
  C         5.0352248827       -0.3301992262       32.5336557891
  H         6.4426919094        3.6122445078       19.1947915619
  H         5.8861567033        2.5680498722       20.4840476643
  C         5.3448719717        1.7921603473       18.5611360080
  H        11.2628798115        3.0173686914       21.8426026553
  H        11.6408862662        3.1580579741       20.1348935682
  C        12.6264190894        1.4529975475       21.1342610001
  C        10.1660329594        7.9231755960       17.1162349888
  C        10.3071854132        5.7843295333       15.9592708106
  H         2.6802191009        5.3002125362       28.4794197150
  H         2.4928325790        6.8903877494       28.6708848430
  C         1.1526218345        5.5931203216       30.0046672438
  H         5.4818304935       -1.3887357235       32.4772675726
  C         4.6814194171        0.1781929773       33.7467040758
  H         5.1203638808        0.7518296668       18.6387413069
  H         5.5240968159        2.0881669596       17.5240224490
  C         3.9780056923        2.2808646306       18.8363808092
  H        12.4861346551        0.6995931743       21.9171795319
  H        12.8015502176        0.9463198252       20.1622283675
  C        13.7457138622        2.4441912018       21.4284537020
  N         9.8826501610        8.7942091973       18.1217028245
  C        10.3506008567        8.5472009457       15.9077891742
  C        10.5880208037        6.4244225486       14.7554508053
  H        10.2301549552        4.8019804387       16.0162817403
  H         2.0319287950        5.1304668326       30.5644290611
  H         0.8755501550        6.4068437329       30.6452275127
  H         0.3319299578        4.9207810485       29.7586203847
  S         4.3181552947        1.8273645342       34.1718796257
  C         4.7421284817       -0.7101471453       34.8935017337
  H         3.8875513448        2.6684701636       19.8258223421
  H         3.8346606582        3.1616195542       18.1957932534
  C         2.8700406298        1.2531255811       18.6603432493
  H        13.4225308741        3.2648991719       22.1033106034
  H        14.0479925138        2.8615520114       20.4613802722
  C        15.1132164758        1.8231928065       21.8680943723
  S         9.9078497484       10.3104745074       17.4946317171
  N        10.3659001764        9.9661047929       16.0183126985
  C        10.7210570514        7.8759888229       14.7182081815
  H        10.7886440240        5.8681149663       13.8700955367
  C         4.3669522570        1.2612438142       35.8171242685
  N         4.3058674725       -0.0606724580       35.9568401101
  O         4.9865387674       -1.9229964984       34.8158484226
  H         1.9171335984        1.6777215268       18.7484766683
  H         3.0014155048        0.6324858785       19.5514115805
  C         2.8228837810        0.5558862782       17.2743707948
  H        15.0148689358        0.7412653974       22.0158798357
  H        15.8513108016        2.1169651486       21.1341978636
  C        15.5790918307        2.3828011456       23.2125468530
  C        11.1725702132        8.5772492338       13.5482138567
  S         3.7934908790        2.1664441006       37.2045910813
  C         4.2453970781       -0.7627862603       37.2630570443
  H         2.5734445357        1.2978868061       16.4521699875
  H         3.7838081230        0.1118095744       17.1931965542
  C         1.8725863075       -0.5874908970       17.2263107721
  H        14.8685260440        2.4017165660       24.1180558004
  H        15.8933682925        3.4026363910       23.0354516311
  C        16.8777797676        1.8309336735       23.6926536033
  H        10.8924285523        9.6506433428       13.6196923765
  C        11.6008805068        8.2152665723       12.3129253312
  H         3.4767022128       -0.3582034887       37.9260753287
  H         4.0710934676       -1.8659497324       37.2904888427
  C         5.5826132066       -0.5591745791       37.9064256515
  H         1.5726034062       -0.7382614431       16.2024068384
  H         1.0711101531       -0.2936346131       17.8273950596
  C         2.4457081028       -1.8825063555       17.7389734748
  H        17.3563043544        2.3908947121       24.5722851664
  H        16.7067253006        0.8450446656       24.2338602656
  C        17.9146930347        1.7677791722       22.7056532707
  S        12.2868470946        6.6872737951       11.8440741761
  C        11.7762933341        9.2445279163       11.2590133151
  H         5.5999920388        0.3257469044       38.4400017218
  H         5.9708207309       -1.3279385387       38.6242186782
  H         6.4188759633       -0.4008741415       37.1029720179
  H         2.5492279053       -1.8394866953       18.7935567686
  H         3.4369899533       -2.1667888673       17.2303371508
  H         1.8115804110       -2.6805845864       17.5243252418
  H        17.6547974209        2.4934508773       21.9058085721
  H        17.9687098980        0.8112738652       22.3549634560
  H        18.9472978514        2.0784861367       23.0519541979
  C        12.5377698989        7.3887962454       10.2572604793
  N        12.3697504111        8.6856324019       10.2065587232
  O        11.4196331094       10.4277465155       11.4017197406
  S        13.2216980001        6.5282130976        8.8815837941
  C        12.5347362207        9.4091641041        8.8950854206
  H        12.5768327546       10.4662430701        9.1641483413
  H        13.4140259089        9.1632947000        8.4440293840
  C        11.3076831854        9.1820749162        7.9647546133
  H        10.4795799603        8.7581183379        8.5293635921
  H        11.1449766174       10.1728105245        7.5194141277
  H        11.4353162953        8.4339921889        7.1365991763
  H        21.2985218394       11.2415959957        3.4378970432
  C        22.0245107275       10.4717422914        3.4125595079
  H        21.5821388838        9.5238327991        3.1444442968
  C        22.8943452378       10.6351216078        4.6633179189
  C        22.8428927231       10.6339751721        2.1831241999
  C        22.0959443756       10.7149478456        5.9689719735
  H        23.6004205619        9.7409338185        4.6553125413
  H        23.6268546211       11.4752911876        4.5391502788
  H        22.2357882671       11.0838671566        1.4211311818
  H        23.3214803706        9.7120309315        1.8069358675
  H        23.5883572887       11.4316183279        2.1935930892
  C        21.1127012828        9.5467457226        6.4219275972
  H        22.8546585444       10.8903679565        6.7747475079
  H        21.5506833079       11.6721891437        6.0226895468
  C        20.5304511135        9.6817942654        7.8588217046
  H        21.7721451511        8.7168288610        6.3857358479
  H        20.4265847353        9.3283635305        5.6220443234
  C        19.3778603217       10.6850717714        7.8575211405
  H        21.2576170841        9.9016666269        8.5374927824
  H        20.2030667085        8.6503068007        8.1127684444
  C        17.9641709547       10.0217031908        7.5215368341
  H        19.4085587753       11.3200779186        8.7458925799
  H        19.6086111757       11.4102864492        7.1136540384
  C        16.7773947566       10.9140086884        7.2276194741
  H        17.4728265244        9.2965874697        8.2114559847
  H        18.1102053204        9.3595077916        6.5544988619
  C        17.1703030469       12.2113221944        6.4762625139
  C        16.2552801595       11.7004709763        8.3566679848
  C        15.6466998929       10.1501261576        6.5019879860
  C        16.8625074363       13.3715556303        7.2394899890
  C        17.8165654848       12.5347212638        5.2846621952
  C        16.3412940670       13.0414507285        8.4428686086
  C        15.7218534857       10.9960126001        9.4091637633
  H        16.1934620486        9.8463054272        5.5507573007
  H        15.3744582204        9.3039419216        7.1274257163
  C        14.4358795161       11.0016463240        6.1832059319
  S        17.1839692216       14.7985297755        6.3700657305
  C        17.8560650913       13.8870590079        5.0157831434
  H        18.1224820209       11.7695795154        4.6531225837
  C        15.9065945357       13.6985789953        9.5910907015
  H        15.8536001618        9.9719055337        9.4456185074
  C        15.3278918625       11.6379484501       10.5505914142
  H        14.7793315813       11.9615172776        5.7694134913
  H        13.9345190921       11.1583440393        7.1804378091
  C        13.3749132540       10.4082189864        5.2022162250
  C        18.2852522312       14.5312157331        3.7438447051
  C        15.3908721774       12.9845122708       10.6700070324
  H        15.9977757069       14.8002098669        9.6600336431
  C        14.9933350864       11.1847771064       11.7858026757
  H        12.4745301949       11.0929475070        5.1627439944
  H        12.9411467726        9.4847479855        5.5600067157
  C        13.9991772909       10.1930521442        3.8637053413
  C        18.3278720729       15.8965586449        3.4911946303
  C        18.6261952999       13.6195410932        2.5982124231
  C        15.0326007382       13.6219419692       11.9766422977
  C        14.7584487647       12.2194153025       12.6583570008
  S        14.6604578702        9.6639431701       12.4924208585
  H        14.6302633360        9.2823163781        3.8540318636
  H        14.5794690996       11.1276061338        3.6268314477
  C        12.9677101286       10.1094462181        2.7725880782
  N        18.0473760980       16.9880609465        4.3937081695
  C        18.5671328940       16.4483701430        2.2243465211
  C        18.9274701165       14.2014612390        1.3776786321
  H        18.7210878462       12.5374686187        2.6908401838
  C        13.7326581097       14.4107381039       11.7800324231
  C        16.2102534893       14.3903523105       12.6264431605
  C        14.4815539090       11.8273646051       13.9253441690
  C        14.3518519475       10.4907129906       14.0176809092
  H        12.0382421600        9.7882303483        3.2582484298
  H        12.7180087413       11.1297813597        2.4865618186
  C        13.3815768532        9.4448500046        1.5318722085
  S        18.0628123346       18.4119112520        3.6156028889
  N        18.3427787154       17.8885356828        2.1176932480
  C        18.7574297473       15.6276786589        1.1098234389
  H        19.1981531194       13.4944343027        0.6224102301
  H        13.9194707397       15.2929658966       11.1912358696
  H        13.3243883287       14.7438664515       12.7527590276
  C        12.5417897396       13.6207667372       11.2908270189
  H        16.3450364255       15.3322215368       12.1207799690
  H        15.9319101981       14.5665448186       13.6889263853
  C        17.5171007222       13.6015339311       12.7700645594
  H        14.5416444552       12.5947238758       14.6878107492
  C        14.0642371251        9.7039525635       15.3092920956
  H        13.6480136024        8.4573780080        1.7026827407
  H        14.2968652208        9.8877827673        1.1871847268
  C        12.3456150857        9.5481754107        0.3816987072
  C        18.9260630615       16.1981811653       -0.1332918425
  H        12.7639306117       13.1549546737       10.3304617676
  H        12.3917147696       12.7977161887       12.0084194174
  C        11.1899777329       14.3848386882       11.1080874527
  H        17.8786371910       13.3284275308       11.7776877972
  H        17.3488238445       12.6679857261       13.2709414467
  C        18.5739709545       14.2632458303       13.5570112476
  C        13.9681343442        8.2703268939       15.4565470275
  C        13.5775302553       10.3878553409       16.5457515151
  H        12.0182483068        8.5739413193        0.1494149922
  H        11.4487310308       10.0050473859        0.7808274235
  C        12.8131106872       10.2379102710       -0.9691104384
  H        18.8408945291       17.3183191780       -0.0865058305
  C        19.1774449342       15.6490325695       -1.3909637899
  H        11.3958970803       15.2151523163       10.5076179543
  H        10.8246681302       14.7382313693       12.0690257875
  C        10.2318022182       13.4284384641       10.4095882619
  H        18.8285360635       15.2109181223       13.0202043526
  H        18.0411902506       14.6231112140       14.4962193559
  C        19.7756741001       13.4056370600       13.7873152413
  N        14.2986123574        7.3457997106       14.3998866840
  C        13.5685459848        7.6096210884       16.5926594714
  C        13.2613794714        9.6972344560       17.7153133720
  H        13.7468852337       11.4282344678       16.6400479466
  H        12.2624968817       11.0696795674       -1.3296894215
  H        13.0145739914        9.4506620148       -1.7469076508
  H        13.7636416231       10.6345655439       -0.6396160413
  S        19.5449318394       13.9845009311       -1.7252176912
  C        19.1160008424       16.5926896129       -2.4837262281
  H        10.7651008970       12.9759473341        9.5605733070
  H         9.7257739423       12.6764994269       11.0435583619
  C         9.0645151829       14.2188081233        9.7984799000
  H        19.8517074926       12.6581898074       13.0353902705
  H        19.5662806494       12.8090914642       14.6803248329
  C        21.0434023667       14.2081798198       14.0192393757
  S        14.0256602227        5.8499026141       15.0158286057
  N        13.6156834899        6.2007455459       16.5015833132
  C        13.3217120489        8.2595682762       17.8012108715
  H        13.1312908913       10.2794375967       18.6242208948
  C        19.6191896255       14.5107756083       -3.4107713848
  N        19.4914248731       15.8839170121       -3.6029658300
  O        18.7805042243       17.7772156990       -2.3993279606
  H         8.6310456655       14.7454570664       10.5878923640
  H         9.4377644670       14.9231419702        9.0494660861
  C         8.0048702302       13.2859747978        9.1406979557
  H        21.8879405701       13.7297378705       14.4123431334
  H        21.3184137945       14.4532932389       13.0184136491
  C        20.8695659196       15.4185380956       14.9502556325
  C        12.9960142270        7.4546869646       18.9844167086
  S        20.2828494551       13.6328618678       -4.7799729426
  C        19.6189824600       16.5798265544       -4.8358081885
  H         8.4673962739       12.8863745892        8.2622956525
  H         7.6211100635       12.5189313441        9.7898148743
  C         6.8669625852       14.2379247218        8.5493650128
  H        20.9848959690       15.1018221680       15.9781399589
  H        19.8803750611       15.8440611649       14.9209543963
  C        21.9498178700       16.3949421750       14.5886391902
  H        13.5373436015        6.5310997974       19.0422208722
  C        12.5162475793        7.6021648046       20.2643406977
  H        20.3792854557       16.2422675301       -5.4706278819
  H        20.1520750386       17.4859323106       -4.5938607595
  C        18.2030690079       16.8741925940       -5.4423904490
  H         6.3039994726       13.8628034781        7.6409210334
  H         7.1908031343       15.2727374258        8.4034682436
  C         5.7541255339       14.1613549256        9.6177730858
  H        21.9375878189       17.0285378485       15.4274884410
  H        22.9961556230       15.9430415031       14.5776966896
  C        21.6608735599       17.1968610479       13.3754246935
  S        12.0076115243        9.0860540286       20.9512758272
  C        12.3477231952        6.4497473238       21.1690055537
  H        18.2060238563       17.9460960263       -5.6617449412
  H        17.3845976407       16.7818761011       -4.6674840572
  H        17.9494596340       16.3204637544       -6.4233842129
  H         5.9299127015       14.8425534019       10.4435421088
  H         4.8612805233       14.6460964643        9.1145279514
  H         5.5013864304       13.1164204265        9.9442287193
  H        20.5982868693       17.4504008628       13.2107054366
  H        22.1291912777       18.1175227744       13.3959817408
  H        22.0152753211       16.5390222555       12.5515328427
  C        11.3750123525        8.1732419237       22.2890079982
  N        11.7462658214        6.8731466898       22.3146073858
  O        12.6793033284        5.3170626589       20.9103482674
  S        10.8895972291        8.9871968019       23.7977205174
  C        11.5535101033        5.9967403939       23.5657747273
  H        11.4122315571        4.9830468194       23.1385537551
  H        10.6705523861        6.2027012650       24.1847866949
  C        12.8413781694        6.0908285635       24.4137457616
  H        12.9093434668        5.2691032396       25.0265789664
  H        13.0110640691        6.9541106855       25.0662786793
  H        13.7990519717        5.9957421539       23.8223429378
