352
 i =    42500, time =    42500.000, E =        25.0995190366
  H        12.0980456602        7.2288365694       31.9875791873
  C        11.3919815681        6.3989936338       32.0210213223
  H        11.9643985459        5.5649576232       31.4492398044
  C        10.0996432564        6.5914829503       31.2195660772
  C        11.2587432807        5.8674079676       33.3756824932
  C        10.4067732301        6.9421151270       29.7774295856
  H         9.5798052340        5.6001703125       31.2599738684
  H         9.4335024880        7.3790921047       31.6880624691
  H        12.0437268233        6.3155661332       33.9723253706
  H        10.2668477146        6.0168365470       33.6587095105
  H        11.4703713148        4.7994574593       33.4329994142
  C         9.6798250556        6.0233655315       28.8114999302
  H        11.4755320221        6.9463777634       29.7093980958
  H        10.0266221711        7.9709540261       29.5131364574
  C        10.3489657440        6.0933361068       27.4211450150
  H         9.5904969326        4.9118188880       29.1831484615
  H         8.7842390423        6.5129582139       28.8383067304
  C         9.4801493966        5.3017600838       26.3761622707
  H        11.3245511937        5.6410864551       27.5005894405
  H        10.3761871521        7.1724122615       27.2169028105
  C         8.1910864973        6.0862471803       25.8911386533
  H         9.9721863318        5.0688690126       25.4061842805
  H         9.1947079206        4.2936568423       26.7381170205
  C         7.1035600074        5.3682736266       25.0576570928
  H         7.6970171999        6.6020103263       26.7836739004
  H         8.5261250561        6.9126040982       25.3374862903
  C         6.7682766089        3.9877835692       25.8055940322
  C         7.6574168815        4.6554251400       23.9015786609
  C         5.8512222455        6.2010609045       24.6853915268
  C         7.0787765395        2.9265128370       24.9810355212
  C         6.3432256370        3.5931516601       27.1052369810
  C         7.5749979803        3.3318171754       23.7973822190
  C         8.1871906526        5.3507046122       22.7973347494
  H         6.1829443055        6.8796920318       23.8972749984
  H         5.6097057702        6.9378459997       25.4502462505
  C         4.6204468903        5.3592172896       24.1984449960
  S         6.6913907338        1.4264372434       25.7255855052
  C         6.3416799983        2.2487287452       27.2180060853
  H         5.9764557230        4.3137818735       27.8296683776
  C         7.9801426806        2.7169646362       22.5822211115
  H         8.0109958454        6.4047028819       22.7647810742
  C         8.5861177024        4.7207446875       21.6642064606
  H         4.5847284739        5.0616981932       23.1695200794
  H         4.5208938631        4.4394629300       24.7334931546
  C         3.2865736698        6.0319620598       24.1682504120
  C         6.0773234218        1.5641569725       28.5286897867
  C         8.4554461249        3.4141108692       21.4846025356
  H         7.8888678185        1.6000427048       22.5027218894
  C         8.9897023182        5.1194710435       20.4332349037
  H         2.4799761455        5.5233194634       23.6647102601
  H         3.2792208481        7.0104313112       23.6562895578
  C         2.8528807750        6.3209009060       25.6325349241
  C         6.2298611084        0.2355557492       28.8821518468
  C         5.5750365679        2.3887621743       29.6748815132
  C         8.8618130200        2.6862157080       20.1573219333
  C         9.1231435446        4.0615807739       19.5653646902
  S         9.3449433466        6.6289486849       19.7407422712
  H         2.4024202669        7.2291396327       25.6367487300
  H         3.6812060995        6.4862129842       26.3038661914
  C         2.0302676337        5.0833936982       26.1201164894
  N         6.5333551997       -0.7181475781       27.9140959806
  C         5.9942071617       -0.3426327338       30.1069724809
  C         5.4010520229        1.8786194518       30.9605951208
  H         5.2951761390        3.3998263744       29.5141817835
  C         7.7465226647        1.8823754629       19.4735181663
  C        10.1897627131        1.9019742774       20.3565569002
  C         9.5033924529        4.4449581985       18.3007956951
  C         9.6877777873        5.8139207997       18.1936960234
  H         1.3771645106        4.7740350782       25.2789976171
  H         2.6153947835        4.1913490332       26.2225632853
  C         1.3446939634        5.3691189169       27.3803553110
  S         6.6278691649       -2.1541655212       28.5687113543
  N         6.1486698215       -1.7300801820       30.0789505040
  C         5.6180615078        0.4102613958       31.2372570614
  H         5.0565749055        2.5385184811       31.7349998025
  H         7.4445493384        1.1308710854       20.1424594846
  H         8.0973263248        1.4384917830       18.5275772794
  C         6.5365257580        2.7128392907       19.1161650253
  H        10.4277954035        1.2664011949       19.5197081074
  H        10.0562463536        1.1960970229       21.2120220740
  C        11.3829021063        2.8186919332       20.7483730024
  H         9.5770168613        3.7281073390       17.4856410501
  C         9.9767148349        6.5965938014       16.9176220504
  H         0.5309087227        4.6973159990       27.4965148859
  H         0.9403296947        6.3810145684       27.3236799429
  C         2.3270802131        5.4234772141       28.5297345633
  C         5.5393870930       -0.2947612687       32.4913984844
  H         6.8443386205        3.6478104278       18.6218432280
  H         5.7867993740        3.0721608155       19.8145838617
  C         5.8640072403        2.0057468297       17.9529935842
  H        11.1103431950        3.6225040790       21.3536329887
  H        11.7831146654        3.2185879560       19.8548466390
  C        12.6229239792        2.1250875827       21.3530648652
  C        10.0327565109        7.9838468159       16.7662046891
  C        10.2017046957        5.7986204243       15.6576186667
  H         3.1130757863        4.7136808575       28.4850381080
  H         2.9021463152        6.3188235526       28.6177071137
  C         1.5450088057        5.3656547380       29.9064175469
  H         5.6070688137       -1.3497668812       32.3493351035
  C         5.2418143566        0.0459466467       33.7804812551
  H         6.0506254640        0.9240147242       18.0558028189
  H         6.4580488270        2.3389188153       17.0545272149
  C         4.3988056588        2.3371068808       17.7616248911
  H        12.4639377814        2.0055190867       22.4055680472
  H        12.8472155159        1.1651594220       20.9905698210
  C        13.8720628685        2.9738751899       21.0280105617
  N         9.7865143520        8.9528492728       17.7674522502
  C        10.3118263372        8.5961276471       15.5467746677
  C        10.6300254924        6.4100814931       14.4500222340
  H        10.1257150166        4.7216083950       15.7610708706
  H         0.7033747625        4.6907523374       29.8327432917
  H         2.1637024222        5.0235750923       30.6883419093
  H         1.3554859675        6.2911789663       30.3272618141
  S         4.8740633522        1.6147696533       34.2763457445
  C         5.0123953777       -1.0472157737       34.7883085083
  H         4.0361962025        3.0376849730       18.5935458466
  H         4.1378516395        2.8821292608       16.8369857756
  C         3.5689442511        1.0908891543       18.0626198524
  H        13.5683073717        3.9286081517       20.6875984138
  H        14.4948373585        2.4082487426       20.3548229819
  C        14.7885400976        3.0481776200       22.2515865436
  S        10.0566584562       10.4255878210       17.1647730230
  N        10.3562009294        9.9970740842       15.6416759711
  C        10.7405386902        7.8895218477       14.3763949143
  H        10.8743848332        5.7914292505       13.7034140343
  C         4.6000448335        0.8389929972       35.8985403391
  N         4.6218909675       -0.5133211233       35.9292579042
  O         5.0815518436       -2.2460393818       34.5158458027
  H         2.6249049162        1.5595008079       18.3545270045
  H         3.9884022915        0.8434391963       19.0297449102
  C         3.6126801859        0.0021442969       16.9897687951
  H        15.5782214961        3.7286846958       22.0184151195
  H        14.3420693408        3.4844127487       23.1388292974
  C        15.4888196361        1.7463517174       22.6970347359
  C        11.1118475992        8.6557776135       13.1746423921
  S         4.0488116413        1.7023267664       37.3194929784
  C         4.4754749971       -1.3302432755       37.1623377209
  H         3.1281187293        0.4721226149       16.1479890380
  H         4.6522760634       -0.2127658916       16.6782580100
  C         3.0086853380       -1.3356301343       17.5916408745
  H        15.6860494658        1.0503781302       21.8455984063
  H        14.7309777865        1.1525685908       23.3297358295
  C        16.7820852375        1.8951369714       23.4808893465
  H        11.1158574475        9.7287497745       13.2689007766
  C        11.5495691115        8.3333919206       11.9375766189
  H         3.8703348394       -0.8735194275       37.9295650577
  H         3.8103014805       -2.1606148329       36.8257482435
  C         5.8764220327       -1.6789589768       37.7623796270
  H         3.4373200434       -1.6069738695       18.6057813176
  H         3.3151948958       -2.1259921989       16.8813546844
  C         1.5205439467       -1.2958110760       17.7028630494
  H        16.5381654771        2.7362947365       24.0724993744
  H        16.8279331644        1.1013763611       24.1548115698
  C        17.9932108448        2.0051289941       22.7042403258
  S        11.7525968334        6.6998429446       11.4064569615
  C        11.8664737656        9.4670386332       10.9565952208
  H         5.7639111027       -2.5141350022       38.4245944581
  H         6.6290249803       -1.9212599724       37.0132609012
  H         6.3304454947       -0.7867932980       38.2938391011
  H         1.1031867083       -2.3025064257       17.7084867398
  H         1.1405642710       -0.8146605401       16.7535443777
  H         1.2255154093       -0.7527667042       18.5425215938
  H        18.8665830491        1.9727854131       23.3175250118
  H        18.0945247021        2.9626378052       22.2107525760
  H        17.9661188384        1.2236087019       21.9339386295
  C        12.3901202311        7.5270962275        9.9157520715
  N        12.3010478343        8.8720133510        9.8261802384
  O        11.8089401822       10.6731569652       11.2183402512
  S        12.8030899733        6.6317866421        8.4357016608
  C        12.5163473554        9.6199025276        8.6523276415
  H        12.6509185256       10.6909697139        8.9540279040
  H        13.3544719213        9.2943595792        8.0860991031
  C        11.2645477758        9.6182384886        7.8300128802
  H        10.2504063130        9.5676791652        8.2806124262
  H        11.1303234559       10.5393908056        7.2500429039
  H        11.3870465288        8.9567691946        7.0044310461
  H        20.6787801271       11.3511509848        2.7127583294
  C        21.2225826191       10.4178096078        2.8485790275
  H        20.3765340105        9.7293232094        3.0400571812
  C        22.1359891566       10.5906760438        4.1011547552
  C        22.1096176337       10.1835434896        1.5980840439
  C        21.3371588032       10.8914780718        5.3791141402
  H        22.7808075285        9.7674002052        4.3229105826
  H        22.7571124018       11.3692593476        3.9451468732
  H        21.6932330482        9.4504484400        0.8966918543
  H        23.0487429793        9.8204479864        1.8107200157
  H        22.2588361687       11.0951800182        1.0073817670
  C        21.0147399729        9.6239776460        6.1963211660
  H        21.9590787369       11.5604254584        6.0495626232
  H        20.3522653667       11.3928050192        5.2260642032
  C        20.4167139846        9.8296341055        7.5762579477
  H        21.8947154458        9.0731428505        6.3121838215
  H        20.3112079278        9.1011205972        5.5523399725
  C        19.0960870993       10.6162315690        7.5396647280
  H        21.1310761088       10.3463538084        8.1470431880
  H        20.4126493707        8.8850819522        8.0989928575
  C        17.9580218454        9.7993795714        7.0151037770
  H        18.8501403440       10.8115646703        8.6035111105
  H        19.1740149217       11.5217606069        6.9597601990
  C        16.6039964010       10.6681644494        6.7979454118
  H        17.7287197968        9.0395263530        7.7391331245
  H        18.2495889305        9.3319667111        6.0622615923
  C        16.9707404813       12.0130318126        6.1133570468
  C        16.1587701111       11.3821171912        8.0683836272
  C        15.4494235202        9.9329578060        6.1065688892
  C        16.7686822164       13.1486134098        6.9349883426
  C        17.4248491815       12.3750966269        4.8605774805
  C        16.2398304523       12.7258885835        8.1334873398
  C        15.7363100957       10.7655283152        9.2750738795
  H        15.8323921248        9.2484704001        5.3041981466
  H        14.9577689998        9.3078447917        6.8529212706
  C        14.3223888302       10.7976676326        5.5375130380
  S        17.0431417507       14.6145825857        6.1529182796
  C        17.4460639493       13.7396392246        4.6298270817
  H        17.7003031078       11.6154183088        4.1551170509
  C        15.8600639229       13.3964661739        9.2436547180
  H        15.7475734093        9.6738771094        9.3452721000
  C        15.4989095675       11.4957201941       10.4137054543
  H        14.7478183807       11.5443610410        4.7652458637
  H        13.8909157951       11.4355007512        6.3547688966
  C        13.1638839108        9.9180738417        4.8778884475
  C        17.8849065218       14.4336439122        3.3452934732
  C        15.5470120569       12.8027328498       10.4560594817
  H        15.8462343397       14.4542439771        9.2865285747
  C        15.1807470861       11.1732411191       11.6629644962
  H        12.1961338113       10.3372073507        4.9369853231
  H        12.9820523580        9.0254275428        5.3535749756
  C        13.5098108174        9.5996242825        3.3546459450
  C        17.9032052417       15.8488842116        3.0914534278
  C        18.4568366491       13.6167756537        2.2255295950
  C        15.1259264575       13.5458670184       11.7015636766
  C        14.9219666790       12.2629476128       12.4025517721
  S        14.9095417593        9.7287564043       12.4798864527
  H        13.9537501937        8.6069098207        3.2584727394
  H        14.2138514677       10.2141573555        2.8560492436
  C        12.2574151973        9.6775123981        2.5577554695
  N        17.6759184897       16.8541227168        4.0153572672
  C        18.1859655194       16.3489262591        1.8011654123
  C        18.7409290855       14.1693724566        0.9547604993
  H        18.3828954197       12.5733412585        2.1940589760
  C        13.8601320116       14.4686517315       11.5285166113
  C        16.3040043867       14.4989614611       12.1294235714
  C        14.5122498033       11.9442764283       13.7092949440
  C        14.5442905495       10.6438254999       13.9101207838
  H        11.5320237312        9.0289797207        3.1142886623
  H        11.7109481831       10.6289503916        2.5191876405
  C        12.2600209984        9.0735936765        1.1489173426
  S        17.6190858906       18.2586312212        3.1261996940
  N        18.0101783137       17.7061968383        1.6748772872
  C        18.5746173175       15.6147589718        0.6889946628
  H        19.0564367593       13.5031368187        0.1672947623
  H        14.1151877102       15.1726536486       10.7175217252
  H        13.6648743333       15.0147928999       12.4805234624
  C        12.6196724021       13.7083158109       11.0956338904
  H        16.5662874819       15.1466055561       11.3165414595
  H        15.8495136955       15.0824647981       12.9496361457
  C        17.5572269311       13.7227755668       12.5595836395
  H        14.1294003618       12.7210317629       14.3317927069
  C        14.2224865303        9.9387246525       15.1792778819
  H        11.3783434511        8.4710919555        1.1120819874
  H        13.1428334668        8.4411168940        1.1265561447
  C        12.2485420840       10.1768052591        0.0736058008
  C        18.8151213557       16.2538566451       -0.5562235404
  H        12.8268950824       13.1660407785       10.1761153698
  H        12.3673006659       13.0362995755       11.8917304224
  C        11.5308073587       14.7567111953       10.8112936656
  H        18.1176109789       13.3233374574       11.7008546746
  H        17.3999502096       12.8636384587       13.1940322318
  C        18.5048034125       14.6842478835       13.2905802018
  C        14.0412506301        8.5488364611       15.3810371904
  C        13.9077378714       10.7405981697       16.4193171547
  H        11.2874594398       10.6812876788       -0.0199470699
  H        12.8796248504       10.9843246952        0.4936046633
  C        12.6129002461        9.6464724955       -1.2851049762
  H        18.5700531629       17.2794170420       -0.5754756135
  C        19.0713875352       15.8013538388       -1.8505227284
  H        11.7641217774       15.2628164244        9.8640076088
  H        11.4890377467       15.4741956610       11.5738071411
  C        10.2464821596       13.9499939554       10.6562751389
  H        18.3016595342       15.6341158481       12.9077631206
  H        18.2984882440       14.5999538210       14.3545826821
  C        19.9367170490       14.4278584684       13.0221443445
  N        14.1737209603        7.5501194673       14.3879542479
  C        13.5951644908        7.9719737917       16.6038049655
  C        13.4622696904       10.2173847498       17.6404759882
  H        14.1794043477       11.7999873090       16.3546474131
  H        13.6169243825        9.7792155574       -1.4743230416
  H        12.1615123318       10.1543337991       -2.1162784746
  H        12.4060784040        8.5915084086       -1.3180682128
  S        19.4192042445       14.1765618050       -2.3135824704
  C        19.0948328088       16.8302198336       -2.9110928510
  H        10.6345236561       13.0043915860       10.2521675761
  H         9.7883492864       13.6721775992       11.5523269087
  C         9.2839841327       14.6028888713        9.7105725170
  H        20.1067681143       14.2050947381       11.9306482986
  H        20.2390425076       13.4778396888       13.4372784482
  C        20.7937579521       15.5806441674       13.4652598384
  S        14.1280543579        6.0978638565       15.0779750746
  N        13.5330920426        6.5300324057       16.5444122660
  C        13.2273232730        8.7392982948       17.7544573331
  H        13.2845196190       10.9409821688       18.4436229332
  C        19.6501973796       14.8655835196       -3.9521309495
  N        19.4674382738       16.2063316237       -4.0470843146
  O        18.6985221396       17.9947585555       -2.8631069286
  H         8.5920201654       15.3020715617       10.1763969119
  H         9.6519266629       15.1688877736        8.8989249995
  C         8.4823467856       13.4490818630        9.0543850432
  H        21.8071455898       15.3672154791       13.0527707456
  H        20.3250708273       16.5135402167       13.1583574892
  C        20.8498584801       15.7919001641       14.9660499566
  C        12.9655891315        8.0557370355       18.9444432557
  S        19.9505258004       13.9479367530       -5.4474453412
  C        19.4577345969       16.9348907631       -5.2775329792
  H         9.1637579630       12.8955923355        8.4391479126
  H         8.1367359720       12.6723664079        9.7877683205
  C         7.2822428016       13.8681180412        8.1284038343
  H        21.0830163140       14.8822590275       15.4022810740
  H        19.8201593966       15.9507300350       15.2876956831
  C        21.9228066975       16.8221102516       15.4123193820
  H        13.2784485337        7.0550354147       18.9206526850
  C        12.3253833448        8.4386738109       20.1313820177
  H        20.0600088571       16.4998893273       -6.0042487399
  H        19.7813100050       17.9605760617       -5.2137181867
  C        18.0007758182       16.9481475659       -5.7737584643
  H         7.2133206605       13.1403257603        7.2938265872
  H         7.4986020364       14.8512287772        7.7000963818
  C         6.0135660580       13.8946352125        8.9209084446
  H        22.3265534988       16.4110833704       16.3741389165
  H        22.7190149459       16.7961911101       14.6741258184
  C        21.3116057474       18.2251927036       15.3804492745
  S        11.4994129247        9.9567245089       20.3455999602
  C        12.2713805003        7.4370032431       21.2742916447
  H        17.9840662315       17.4381612644       -6.7157325325
  H        17.2622394975       17.4276649674       -5.1535445745
  H        17.8414254645       15.8936460624       -6.0209081323
  H         6.1700235285       14.4373843845        9.8750337779
  H         5.2477968323       14.4584536745        8.3727572749
  H         5.6426165998       12.9362168718        9.2431386956
  H        21.4440690549       18.5777782393       14.3326542722
  H        20.2450185210       18.1282251258       15.5768141256
  H        21.7594330862       18.9557712501       15.9951704144
  C        11.2396421222        9.2953545726       21.9431073294
  N        11.5453983945        8.0328474998       22.2512209887
  O        12.6605586988        6.2602173790       21.2962339822
  S        10.3866260903       10.1688255504       23.1772221849
  C        11.2378213692        7.3950226834       23.5273389006
  H        10.8058026850        6.4452614382       23.2043917653
  H        10.2679179676        7.7657401730       23.8913952626
  C        12.4399361195        7.2730501070       24.4967220152
  H        12.4343669332        8.1934067628       25.1572941593
  H        13.3053199341        7.1540432864       23.8954294451
  H        12.4021447451        6.4044290158       25.1034947099
