352
 i =    98400, time =    98400.000, E =        25.0917132926
  H        10.4449402159        6.6387125160       31.3455180478
  C        11.3788711168        6.6267952950       31.7298943188
  H        11.4914895217        7.6783569532       32.1465562749
  C        12.2224525412        6.2897179508       30.5357312119
  C        11.4757130377        5.5905699553       32.8289504644
  C        11.4884880166        5.1786802683       29.6882875259
  H        12.5272426845        7.1872188263       29.9747623407
  H        13.1546537437        5.8515851657       30.9733858853
  H        10.7001824213        4.8395261560       32.5992661037
  H        12.4642474976        5.2078429306       32.9392994151
  H        11.1186030356        5.9005037931       33.7890800456
  C        10.4250937345        5.8335028045       28.7664706261
  H        10.9477438910        4.4966630713       30.3632610113
  H        12.2012420890        4.5380471097       29.1106077189
  C        10.8626743663        5.9725658502       27.3209281650
  H         9.5200163774        5.2013722831       28.9044499855
  H        10.0667515180        6.9115255728       29.0264638995
  C         9.9119880213        5.1670454899       26.3743391997
  H        11.9787526574        5.8164859247       27.1650712834
  H        10.8126728403        7.0254642386       27.0289430780
  C         8.5557761744        5.8896654611       25.9611592803
  H        10.3565158863        4.9053070162       25.4377906671
  H         9.6884794862        4.1968600553       26.8657474546
  C         7.5584024040        5.0403983675       25.2377847864
  H         8.0361175019        6.3105030382       26.8354870569
  H         8.6749225867        6.8027546730       25.3446602318
  C         7.3115919050        3.6947932562       25.9262758698
  C         8.1596557458        4.2805412644       24.0331871776
  C         6.2733703954        5.7389719892       24.8440421628
  C         7.6860109313        2.5937549403       25.1655304668
  C         6.7455810471        3.3727913357       27.1947843247
  C         8.0697347954        2.9458914901       23.8767899376
  C         8.6009494464        4.9677361097       22.8945583048
  H         5.6806099673        5.1300397779       24.2109720787
  H         6.5580949602        6.4424044981       24.1847926218
  C         5.4001372694        6.3755016103       25.9938307115
  S         7.4938881280        1.1628310544       26.1392779821
  C         6.7498263249        2.0786229441       27.4140324188
  H         6.5074458972        4.1878765053       27.8786191873
  C         8.4367428479        2.2909399074       22.7662015044
  H         8.7118279866        6.0523290295       22.8075932251
  C         8.9309789028        4.3318912638       21.7758033643
  H         5.6415865579        5.7985626675       26.8436093090
  H         5.9434173791        7.3324083678       26.1221282546
  C         3.9130910043        6.6948382910       25.6562740718
  C         6.2797081187        1.4039153716       28.6377439583
  C         8.8796491129        2.9817372112       21.6030180151
  H         8.3062551275        1.2158469045       22.6845448145
  C         9.4222760475        4.7298694011       20.5732552819
  H         3.5405226531        5.8458686155       25.1097133615
  H         3.8550190036        7.4905535807       24.9125595924
  C         3.0746000155        6.8522037768       26.8540546582
  C         6.2429004939        0.0244412957       28.9396887495
  C         5.7806561573        2.2803921823       29.7134783070
  C         9.3048598671        2.2950080298       20.3030447690
  C         9.6370295549        3.6843291092       19.6577975383
  S         9.7235270031        6.2741128478       19.8671687455
  H         2.1407418619        7.3084675219       26.6757134021
  H         3.4789909885        7.5135122132       27.5392010089
  C         2.8834634694        5.5274561867       27.6327807418
  N         6.6942036397       -0.9187869838       28.0352630332
  C         5.8554771450       -0.4434041029       30.1560453846
  C         5.4066611606        1.8614826860       30.9434379505
  H         5.7165313968        3.3460080930       29.5899145890
  C         8.1368217456        1.4632800085       19.5938561946
  C        10.6105866689        1.4403636678       20.4983684590
  C         9.9461375454        4.1942689729       18.4013444946
  C        10.0387934904        5.5429151784       18.3596158920
  H         2.3316700094        4.8479015467       26.9539989361
  H         3.9110604610        5.1254347174       27.8714562058
  C         2.0069037268        5.7107698515       28.9427287099
  S         6.6254536388       -2.3717180366       28.8195990647
  N         6.0188249701       -1.8132423907       30.2362019528
  C         5.3448472936        0.4095686660       31.2289459228
  H         4.9787299696        2.5750944321       31.6709467595
  H         7.8242251425        0.6685367808       20.2277152591
  H         8.2300133343        1.0035385968       18.6231180468
  C         6.8340557277        2.2195611186       19.3294909895
  H        10.8797724692        0.9825446183       19.5346279443
  H        10.4490626494        0.5734188342       21.0965432834
  C        11.8772137402        2.2759345340       20.9244267694
  H        10.0685878212        3.5348054731       17.6328266831
  C        10.3245811028        6.4165208326       17.1923943137
  H         1.5219777226        4.8176402811       29.2394000093
  H         1.2644938154        6.4017021143       28.6420092166
  C         2.7511606803        6.3449088809       30.0589380910
  C         5.1611289903       -0.0076133675       32.5904520364
  H         6.9708534713        2.8968713813       18.5137121106
  H         6.5760840483        2.7563113422       20.1662940234
  C         5.6967107575        1.2553759488       19.0530391078
  H        11.6206813877        3.0343361530       21.6509958420
  H        12.1784379220        3.0255447117       20.1656551300
  C        13.0813060731        1.4724735759       21.4907734288
  C        10.3393276744        7.8305042488       17.0775200192
  C        10.6028908731        5.6709485187       15.8836625330
  H         3.6002699606        6.8308026176       29.5949170402
  H         2.1918221579        7.0754005034       30.6439163913
  C         3.3046575226        5.2860983034       31.0717295734
  H         5.1994239802       -1.0532787716       32.6512824216
  C         5.0012741493        0.4930608633       33.8955112554
  H         5.4742934743        0.8288807698       20.0771176817
  H         6.1513571219        0.5406953313       18.3963202023
  C         4.4589539399        1.9079692911       18.5109800753
  H        12.7776818152        0.9438867690       22.3430956831
  H        13.4067810706        0.7340062781       20.7964745540
  C        14.3163548780        2.3319277142       21.8026591154
  N         9.9222552960        8.7090941465       18.1720548391
  C        10.7193095195        8.5195485521       15.9154723472
  C        10.9936666013        6.3679570350       14.7526217023
  H        10.6422003638        4.6546519777       15.8888716438
  H         2.4855650887        4.6617501257       31.4723133670
  H         4.0803065318        4.6428320023       30.5964475330
  H         3.7676816709        5.6171645395       32.0235325574
  S         4.7986230756        2.1891437951       34.3459977778
  C         4.9265865663       -0.5427329367       34.9441454087
  H         4.1691114279        2.8391816660       18.9452491464
  H         4.7562346269        1.9927280404       17.4349968100
  C         3.1548893037        1.0818120390       18.5529627590
  H        13.8257407187        3.1996814403       22.2343389635
  H        14.8422208196        2.6221280916       20.9398016630
  C        15.1859798570        1.6002951572       22.9356497215
  S         9.9319753175       10.2127465590       17.4512923839
  N        10.6287816191        9.8740970141       16.0486045137
  C        11.0223427164        7.8535084979       14.7001941025
  H        11.4022591112        5.8316393676       13.9336302418
  C         4.5011487874        1.4466927420       35.8739875791
  N         4.6030620097        0.0574907493       36.0526827152
  O         5.0626537004       -1.7727124747       34.7811102676
  H         2.3667974101        1.5277514040       17.9707325429
  H         2.8019631018        1.0679144901       19.5527652677
  C         3.4531196010       -0.3695342176       18.2444521487
  H        14.5188840570        1.3429006331       23.7375972190
  H        15.7976436931        0.8367369496       22.4610120474
  C        16.1358590947        2.6803397668       23.3239595711
  C        11.3015221120        8.6732280223       13.5645637290
  S         4.0497686354        2.3088668528       37.3305455238
  C         4.6215694805       -0.6725960885       37.2630300358
  H         4.2364657933       -0.4163364712       17.4071435934
  H         3.9487010936       -0.8123694063       19.1333690870
  C         2.2201122869       -1.2010618539       17.7210260548
  H        15.5737831347        3.3180010726       24.0041200363
  H        16.3380269140        3.3723145514       22.5180270662
  C        17.3615543220        2.1425390869       24.0775337667
  H        11.1662471034        9.7447669062       13.6768941771
  C        11.8102080026        8.3582665204       12.3147727559
  H         3.8400089728       -0.3319845467       37.9227016175
  H         4.3565679283       -1.7220018574       37.1439293135
  C         6.0342392908       -0.6093456583       37.9384679909
  H         1.3365329713       -0.8205602165       18.2487018537
  H         2.3250979055       -2.2189539054       18.0044723710
  C         2.0350179381       -1.1094062697       16.1437854428
  H        17.8424432296        2.9626775389       24.6655688375
  H        17.1202363472        1.2613578614       24.6938107320
  C        18.4009411565        1.6227861084       23.0010436212
  S        12.3605932909        6.8167171218       11.6877614239
  C        11.7503228342        9.4532982833       11.2807673154
  H         5.9329648788       -0.2125573367       38.9340274965
  H         6.5410409555       -1.5603377394       38.1296277451
  H         6.7430696634        0.1617229966       37.5903029712
  H         2.3679679539       -1.9864864424       15.5476190267
  H         2.3843537910       -0.2695673015       15.7291934974
  H         0.9976269979       -1.0259446278       15.9667636790
  H        19.2735159281        1.2071622520       23.5330416003
  H        18.6963076669        2.4536731800       22.3473493810
  H        18.0779550839        0.8640704656       22.2877675251
  C        12.4855575846        7.6771559663       10.1457747361
  N        12.2858121371        9.0027294901       10.1423344560
  O        11.4863941689       10.6752774761       11.5388470010
  S        13.1440852500        6.9588445881        8.7366219963
  C        12.4380373161        9.8012867202        8.9546656850
  H        12.4949845587       10.8585570044        9.2058803782
  H        13.4525116274        9.5904869812        8.5081606231
  C        11.2509442506        9.5162539558        8.0319350848
  H        10.3460758423       10.0726062210        8.3458322115
  H        11.4411901119        9.8209194249        7.0272914749
  H        11.0953549380        8.4029544456        7.9865788291
  H        21.1841714733       11.0496959207        3.0185368167
  C        21.9000104634       10.2861422955        3.1991535933
  H        21.3006435670        9.4469898901        3.2317516612
  C        22.5849214029       10.4877681212        4.5489926546
  C        22.9429454429       10.1920885846        2.0660975913
  C        21.5399138368       10.6996593895        5.6279178154
  H        23.2830348558        9.6529403247        4.7365954708
  H        23.2341363264       11.3542442534        4.5143063106
  H        22.6870491446        9.8683930321        1.0819451580
  H        23.8293682356        9.5995179307        2.2826023303
  H        23.3217617587       11.2643885887        1.9455926898
  C        21.2508555879        9.4145813965        6.4445814704
  H        22.0333011565       11.4729086276        6.1993760065
  H        20.6259724793       11.0339393479        5.2004814682
  C        20.5515450530        9.5944352371        7.7885705723
  H        22.2410802663        8.9226297847        6.6726669511
  H        20.6416180294        8.7259675508        5.8697355815
  C        19.2377209788       10.4670926464        7.8378813699
  H        21.3517576282        9.9118918383        8.4814323656
  H        20.2320755360        8.6656558083        8.2521141638
  C        17.9974435669        9.8592442366        7.2690865337
  H        19.0539066536       10.8839568225        8.8443406964
  H        19.5006682604       11.4226593035        7.3084796370
  C        16.7985971464       10.8503330010        7.0228047448
  H        17.6563668937        8.9821929945        7.8223365532
  H        18.1735362227        9.4482479906        6.3417019183
  C        17.1476579352       12.1074019955        6.2495845760
  C        16.4826102614       11.4779442960        8.2664708893
  C        15.7050532793       10.1208329294        6.3393292247
  C        16.9321857534       13.2221776711        7.0350079808
  C        17.7188780140       12.4646748263        4.9659074768
  C        16.4693871660       12.7778531759        8.2856013677
  C        16.1708403204       10.8492263797        9.3973823133
  H        16.0621173757        9.5507567617        5.5197664094
  H        15.2683946690        9.3821975923        7.0262610109
  C        14.5214506308       11.0562290265        5.8579305682
  S        17.2844120054       14.7072422541        6.2191151025
  C        17.8795161423       13.8148985774        4.8610512728
  H        18.0243864971       11.7017040229        4.3447324541
  C        16.1489694905       13.3964863524        9.4019659491
  H        16.1540936989        9.7984090926        9.3152519785
  C        15.6500745953       11.3947636771       10.5073218492
  H        14.8123179887       12.0331887807        5.5706220811
  H        13.9139666961       11.2012888211        6.8057445450
  C        13.6264409296       10.3563862502        4.8111881978
  C        18.3985994256       14.4714632388        3.6312704095
  C        15.7710675756       12.7535975650       10.5635205357
  H        16.0451711025       14.4822931721        9.3236383833
  C        15.2297556973       10.9929452122       11.7811598645
  H        12.7123424626       10.9388274423        4.7807547273
  H        13.5245216483        9.2686377654        5.0211003323
  C        14.2184027251       10.5702675209        3.3965102791
  C        18.5074238669       15.8522882907        3.4018840209
  C        18.6998213050       13.6415055585        2.4855085495
  C        15.2855429345       13.4821201749       11.8559434205
  C        15.0194227065       12.1316973095       12.5597471810
  S        14.9463948798        9.4253828432       12.5446467386
  H        15.1964135178       10.1988848672        3.4073498941
  H        14.1697381568       11.6346479256        3.1165523325
  C        13.4546095181        9.7090352187        2.3642326609
  N        18.2728492486       16.7974055631        4.4451324025
  C        18.7333507257       16.4286387543        2.1448548757
  C        19.0450650113       14.1798292205        1.2104728065
  H        18.4800220658       12.5457743711        2.4305876454
  C        14.0105741445       14.3198306274       11.7931540978
  C        16.4380313256       14.2082834612       12.5320264571
  C        14.5961572019       11.6699196336       13.8286408767
  C        14.4922249845       10.2659329485       13.9761810879
  H        13.8676107336        8.7038640532        2.3868490603
  H        12.3827006534        9.6254560916        2.5376637609
  C        13.7886835492       10.1623848601        0.9431221110
  S        18.3607568915       18.2869594300        3.7099163664
  N        18.5859145354       17.8693831313        2.1425086664
  C        18.9852251121       15.6632466510        0.9714326877
  H        19.1942744106       13.5292748428        0.3549988898
  H        14.3456372311       15.3375945644       11.4489011668
  H        13.5164981490       14.4097482320       12.7829377610
  C        13.0085602452       13.6592264521       10.8768868150
  H        16.5599900061       15.1526142142       12.0085653729
  H        16.0538291218       14.5886439001       13.4621794623
  C        17.6805437892       13.4096585352       12.9024822797
  H        14.3951019418       12.3573561286       14.6426855505
  C        14.1485205120        9.4151639520       15.1675827217
  H        14.6930340607        9.5987617726        0.6410926336
  H        14.0880655614       11.2023722602        1.0512194060
  C        12.6376548759       10.0295117954       -0.0679414665
  C        19.2451087786       16.2682513769       -0.2906282706
  H        13.3257629567       13.6157607552        9.8527710274
  H        12.7432899645       12.6919989948       11.2876666197
  C        11.6623956746       14.4106940865       10.8296959334
  H        18.1168627610       12.9761208848       12.0063921203
  H        17.3868916168       12.5345905668       13.4693002010
  C        18.7320536376       14.1901065339       13.6920530368
  C        14.2262807167        7.9984299847       15.2990437678
  C        13.7399216365       10.1291798159       16.4301292840
  H        12.4950009643        8.9064283628       -0.2792672805
  H        11.7777262857       10.3370739691        0.4817859985
  C        12.9208401474       10.8121798384       -1.3623603744
  H        19.1725164368       17.3515128806       -0.1906462796
  C        19.5988781705       15.7093929351       -1.5063156402
  H        11.6855301414       15.4713228716       10.9101894682
  H        11.1872908374       14.1562082062       11.7939766818
  C        10.7744602429       13.9305764024        9.6658909945
  H        18.9333633302       15.1590810403       13.2331527169
  H        18.3478858541       14.3562748995       14.6928394884
  C        20.1131827257       13.5027935078       13.7708912267
  N        14.5791899655        7.0801188575       14.2621769599
  C        13.9885169780        7.3650889335       16.4820454293
  C        13.6416479682        9.4856136979       17.6161108629
  H        13.6089167734       11.1804077431       16.3108706116
  H        12.7814192687       11.8305778915       -1.1411380062
  H        12.2949949404       10.3786114913       -2.1519128690
  H        13.9749067201       10.7441376722       -1.5861442450
  S        19.7342319570       14.1030309079       -2.0649326660
  C        19.8571878296       16.7490152812       -2.5414308767
  H        10.5776606388       14.7919037697        8.9907393421
  H        11.3312091688       13.1382241678        9.1200555358
  C         9.5040799671       13.1417981393       10.0151810640
  H        20.0958941098       12.9970015371       12.8719436493
  H        20.0385045645       12.7403956081       14.5521404377
  C        21.3483582424       14.3439448734       14.1008865022
  S        14.5468092751        5.5582399402       14.8764200166
  N        14.1609890558        5.9910191848       16.3646475574
  C        13.7927039155        7.9761379466       17.7362929137
  H        13.3400543686       10.0464035684       18.4859998265
  C        20.1367126888       14.7881799426       -3.6299103174
  N        20.1743659672       16.1209429321       -3.7004683005
  O        19.8888556369       18.0101641589       -2.3468891553
  H         9.0463652468       12.6751781995        9.1125987191
  H         9.7199436613       12.2601259186       10.5926337224
  C         8.3818887541       14.0035587500       10.7477954034
  H        21.3570388623       14.5804714824       15.2159982663
  H        22.2168804624       13.7234271871       14.1472164171
  C        21.6938436016       15.5791683483       13.2592471431
  C        13.5491601349        7.1483504060       18.9534467700
  S        20.3232701607       13.8984886336       -5.0432248406
  C        20.2006862186       16.8211078454       -4.9238297690
  H         7.7265575675       13.3187726073       11.2525257086
  H         8.6326308407       14.6762392266       11.5261248039
  C         7.4830482085       14.6524616636        9.6857925285
  H        21.1014567122       15.5345462638       12.3271113124
  H        22.7854906433       15.5947446161       13.1684132782
  C        21.2248576051       16.8034358248       14.0067497781
  H        13.8852581862        6.1802311227       18.6694584205
  C        12.9876250455        7.3671699244       20.2012201921
  H        20.9234006983       16.3820259494       -5.6293795769
  H        20.5774922073       17.7518414554       -4.7487544744
  C        18.8214865584       17.0329246003       -5.5289762206
  H         8.0195210174       15.1681768426        8.9488388408
  H         6.9352233062       15.4769474275       10.1584095155
  C         6.4646161816       13.7822941402        8.9251778512
  H        21.2277643914       17.5497016556       13.2217284965
  H        20.2363847793       16.6298913770       14.2935035255
  C        22.1060890220       17.2485011755       15.1988137377
  S        12.4426247872        8.9654253737       20.7245659996
  C        12.8182201537        6.3245270507       21.2869093436
  H        18.3758188609       16.0507191160       -5.7749952517
  H        18.8109594873       17.6447586385       -6.3723288369
  H        18.2193620479       17.7023500972       -4.9517568572
  H         6.8642895402       13.2799273773        8.0631470670
  H         6.2466077752       13.0036916848        9.6426103835
  H         5.5308139761       14.3177172165        8.6719908102
  H        22.9036218935       18.0117560840       14.8649520316
  H        21.4516422081       17.6278453507       16.0044326300
  H        22.6878224320       16.4325423093       15.6219387074
  C        12.1052777401        8.2645606412       22.2721096503
  N        12.2552097611        6.9031894844       22.3844215347
  O        13.2671118805        5.1828433968       21.2307827480
  S        11.3242536387        9.1529746019       23.5441545296
  C        12.1665695637        6.2399889052       23.6357458129
  H        11.9671145004        5.1236365703       23.5740597669
  H        11.2713291011        6.6263329765       24.1480276805
  C        13.3814602265        6.4329268815       24.5190808025
  H        13.6135326264        7.5043840093       24.6345211644
  H        14.2732320900        5.8622104017       24.1363659202
  H        13.2032909814        6.1188886765       25.5485703521
