352
 i =    66200, time =    66200.000, E =        24.9600402451
  H        10.8656938642        4.3370141384       31.4685770519
  C        11.1907132387        5.2992121414       31.8931115054
  H        10.2739571852        5.6362202241       32.5077452259
  C        11.5298394043        6.3577171444       30.8001559486
  C        12.2942951560        5.1758273293       32.9198670679
  C        12.5538740392        5.8651832644       29.7450843237
  H        10.5335561251        6.6374702713       30.4506622640
  H        12.0150762275        7.1987925605       31.3086453010
  H        12.1208322270        4.4309816549       33.6852713973
  H        13.1791948651        4.8626491241       32.4338481018
  H        12.3935851780        6.1465747029       33.5360089299
  C        11.9722474922        5.1775852692       28.5684983462
  H        13.0841110664        4.9863301580       30.1538226859
  H        13.3360148003        6.5737103284       29.4721206245
  C        11.1377486103        5.9277323515       27.5273391259
  H        12.7647772031        4.7914864416       28.0017663734
  H        11.4118125183        4.3834163566       28.9490821038
  C        10.0116550699        5.0234737572       26.9981037744
  H        11.8186965971        6.2340502712       26.7510729568
  H        10.6105091179        6.7755184132       28.0115547252
  C         8.9246376761        5.7794198986       26.1752592260
  H        10.4305443611        4.2037297299       26.3255937962
  H         9.4401045281        4.6625003296       27.9249924193
  C         7.8250532918        4.9415928841       25.5038534309
  H         8.4862469886        6.4871039859       26.7637499288
  H         9.4351988073        6.3698925967       25.4085448424
  C         7.4884354322        3.5800349562       26.2048615212
  C         8.2131469532        4.2304191747       24.2452192178
  C         6.5248022797        5.7335081412       25.1034882065
  C         7.6666906543        2.4652289592       25.3626186842
  C         6.9018215074        3.2042774167       27.3891634431
  C         8.1730019397        2.8490398353       24.1613898780
  C         8.6704071125        4.9404196539       23.1109760389
  H         6.1044731025        4.9158290755       24.4404365570
  H         6.8907527845        6.5401510332       24.4756115630
  C         5.5238917207        6.1313386344       26.1901137507
  S         7.2794447857        0.9606585907       26.0691449966
  C         6.6601648867        1.8739564179       27.4991732991
  H         6.6174513280        3.8815720737       28.1611959967
  C         8.4983837880        2.2599388585       22.9719181801
  H         8.7266818233        5.9834612415       23.1537287756
  C         8.9481788522        4.2886980222       21.9011916979
  H         5.3940561756        5.4320839183       26.9868404522
  H         5.7996550326        7.0872002610       26.5763421856
  C         4.2310879967        6.3909368596       25.4435192381
  C         6.2190407507        1.1975096585       28.7575760804
  C         8.9043888092        2.9464860645       21.7972111731
  H         8.5012541668        1.2187557617       22.8674584796
  C         9.3612798191        4.6786604724       20.6550995111
  H         4.0171725574        5.5649877108       24.7197003368
  H         4.2979402814        7.3170087825       24.8437065320
  C         3.0974358453        6.4519885366       26.3864292505
  C         6.2094503073       -0.1670638237       28.9504842596
  C         5.7338351686        1.9295940588       29.9673261586
  C         9.2347936181        2.2024581142       20.5065185742
  C         9.5038752839        3.6013410376       19.8687190958
  S         9.6147263255        6.2275860092       19.9517922151
  H         2.3253664163        7.0630735420       25.9081951183
  H         3.4152541680        7.0307145986       27.2917002675
  C         2.5643560963        5.0569399155       26.7423815018
  N         6.4864923218       -1.0862488749       27.9047275151
  C         5.9073800787       -0.8423150363       30.2114745130
  C         5.4796375616        1.2797662338       31.1611568043
  H         5.6817192164        3.0261305898       29.8579095621
  C         7.9568169825        1.5747506486       19.9072546051
  C        10.4381349808        1.3061395958       20.6328072935
  C         9.8518228928        4.0433965590       18.5710307503
  C         9.8756423889        5.4286037816       18.4341277509
  H         1.8765359474        4.7178546272       25.8840557712
  H         3.3650653678        4.2996635695       26.6897284935
  C         1.7405292192        5.0500161681       27.9541717322
  S         6.4240971721       -2.5986848983       28.5136074875
  N         5.9640837778       -2.2222713802       30.0318911567
  C         5.4546266477       -0.1880135631       31.3737662372
  H         5.3372399646        1.8754541887       32.0565310829
  H         7.4592627258        0.9739376452       20.6921687019
  H         8.0724973442        0.8093557990       19.1235990450
  C         6.9178763682        2.6642501651       19.4379198357
  H        10.7432128942        1.0036564833       19.6667706057
  H        10.2768920551        0.2835155932       21.1197884226
  C        11.6910741503        2.1378126420       21.0443440179
  H         9.9817710935        3.2474132321       17.8345686261
  C        10.1225316426        6.2344477380       17.2033998632
  H         1.1730827842        4.1812374096       27.9078782263
  H         0.8780163887        5.8131626178       27.8419044230
  C         2.4427797836        5.4543220911       29.2640737391
  C         5.2004102349       -0.9610705251       32.5479706762
  H         7.2692813978        3.0912498856       18.4694440795
  H         6.7628889726        3.4979485536       20.1323604051
  C         5.4220905927        2.2643793599       19.1014353908
  H        11.4336517093        2.8369211659       21.8621090002
  H        11.9462817872        2.8385735234       20.2432634036
  C        12.8320913001        1.3488659705       21.5109244713
  C        10.1619095057        7.6461273632       17.1146642204
  C        10.5535087807        5.5195743127       15.9581583665
  H         3.3293897058        4.7334913647       29.2444858190
  H         2.7092240905        6.4940818036       29.2859087833
  C         1.6165927774        5.1189271052       30.4567331190
  H         5.2473237258       -2.0534906936       32.3528838710
  C         5.0341091421       -0.6070210435       33.8202391168
  H         4.9245991192        3.1384236627       18.7392472500
  H         4.9483125690        1.8717007519       19.9783953923
  C         5.1805358831        1.2626886739       17.9627039525
  H        12.5602169964        0.7337954017       22.3865740668
  H        13.2261733645        0.6040356063       20.8008962250
  C        14.0361167444        2.2132745369       21.8636176149
  N         9.8999578753        8.5405621544       18.1545809136
  C        10.5034853142        8.3837120009       15.9400336134
  C        10.8544636256        6.2734214170       14.8132367861
  H        10.5408788105        4.4867672672       15.9851351796
  H         0.7913982707        4.5113741858       30.1750830630
  H         2.0571399250        4.5144273122       31.2986277680
  H         1.2890098572        6.0675241579       30.8721024244
  S         4.8925094244        1.0107707549       34.3067281088
  C         4.9013229118       -1.6506994893       34.8320958668
  H         5.7916684704        1.5347535136       17.0598628712
  H         5.4380161753        0.3156954206       18.3784660557
  C         3.7678391233        1.1905094123       17.4057917430
  H        13.7203532586        3.0037560921       22.4732848840
  H        14.3711302201        2.8026360544       21.0513967865
  C        15.0683235537        1.3808610561       22.5931911887
  S         9.9078339852       10.0423195294       17.6725754693
  N        10.2787495479        9.6866219806       16.0763402360
  C        10.9462013517        7.7334422233       14.7655853919
  H        11.1431370533        5.6866035055       14.0020928125
  C         4.5187955154        0.2584784941       35.9446826472
  N         4.6125712278       -1.0855934828       36.0294148542
  O         4.8268213357       -2.8802694860       34.5171388103
  H         3.6389858729        1.1670769333       16.3094486142
  H         3.1360293740        2.1744710741       17.6572247392
  C         2.9944384151        0.0178598755       18.0604648127
  H        14.8897228982        0.9006548688       23.6037217214
  H        15.2679253082        0.4939755647       21.9045691641
  C        16.2548264416        2.2003616272       22.8903760190
  C        11.2706680491        8.5514034675       13.6284498931
  S         4.1553161113        1.2445563257       37.3573402987
  C         4.5638263883       -1.7916792115       37.3029316704
  H         3.4039059889       -0.3016310663       19.0336348830
  H         1.9060973707        0.3302255443       18.2459178354
  C         3.0237364748       -1.2990988072       17.2218771474
  H        16.0919821988        2.9357854008       23.6320303517
  H        16.5539162352        2.7978526828       22.0381906824
  C        17.3683322545        1.2793159349       23.2334452542
  H        10.9321730415        9.5673311971       13.6145508509
  C        11.6546810491        8.1838943201       12.3970507704
  H         3.8179323406       -1.3187600828       37.9378998670
  H         4.2654610183       -2.8584962616       37.1904336835
  C         5.9016405827       -1.9125010335       38.0626200977
  H         2.8042262621       -2.0654887220       17.9623518978
  H         4.0112142063       -1.4952204765       16.9227624701
  C         2.2154118239       -1.4852834855       15.9516177695
  H        17.0893659260        0.6665960239       24.0431889099
  H        17.5639089359        0.7086664287       22.3588523760
  C        18.6033938368        2.0774055019       23.6364847733
  S        12.1904048880        6.6114709818       11.8972032993
  C        11.6287817348        9.2378126252       11.3283123394
  H         6.0910040942       -1.0841719686       38.7576274756
  H         6.0174504181       -2.8449390316       38.5728542316
  H         6.6855075936       -1.8910015108       37.2690846540
  H         1.1389561432       -1.5675475227       16.3188306319
  H         2.4833137477       -2.2655544889       15.2533645351
  H         2.1103436343       -0.5963326487       15.3903911502
  H        18.5027307074        2.5085881900       24.6284284191
  H        18.7335336812        2.9251507843       22.9753046028
  H        19.5687249559        1.5067919440       23.4293350753
  C        12.3145860998        7.3625360244       10.2709133934
  N        12.1184593837        8.6893538262       10.2002199716
  O        11.2582043425       10.4527429409       11.4121826535
  S        13.2389353150        6.6177633803        8.9977657994
  C        12.4238832924        9.5221098967        9.0650668363
  H        12.4210974180       10.6273246285        9.3121160989
  H        13.3642654640        9.2397267785        8.6217573217
  C        11.3219211858        9.3450596203        7.9468802939
  H        10.3161856004        9.6612607889        8.4268424104
  H        11.4866771667       10.0605848457        7.1022783117
  H        11.1869345442        8.3442862722        7.6365869865
  H        21.2584024222        8.8758119006        3.5320140985
  C        22.2913809431        9.3806973649        3.4988114439
  H        23.1159096210        8.6483417129        3.4358316092
  C        22.6632433581       10.2485142676        4.7097455520
  C        22.2376732185       10.2285212202        2.1707061799
  C        21.4098642105       10.5317568522        5.5901106914
  H        23.4255731577        9.8628551056        5.3036363525
  H        23.0316949971       11.2200619675        4.3291046169
  H        23.0435258093       10.9869488122        2.1056018843
  H        21.3430892600       10.8217584366        1.9847027123
  H        22.3479122374        9.6162534735        1.2780874505
  C        20.8293574648        9.2324432104        6.2926541714
  H        21.7527524512       11.1764281305        6.3944755175
  H        20.7210149357       11.2170749344        5.0497175001
  C        20.2253033718        9.4185969384        7.7265302513
  H        21.7076223495        8.5424617064        6.3088736041
  H        20.2049970000        8.8392316593        5.5248960415
  C        18.9551914444       10.2768928085        7.7198214461
  H        20.9242719405        9.8984577154        8.3893720112
  H        19.8766424920        8.4646240264        8.1378341869
  C        17.5985716525        9.5721324348        7.2755572202
  H        18.8044630851       10.7414443618        8.7082164028
  H        19.2428872973       11.1564393014        7.1670617195
  C        16.4154666405       10.5900475990        7.0415700295
  H        17.2709231274        8.7815945043        7.9035531464
  H        17.9266723105        9.0161225390        6.4019713458
  C        16.8720470308       11.8765382342        6.3332985625
  C        16.1263562102       11.3636997084        8.2373580265
  C        15.1948319323        9.8863679113        6.2859490971
  C        16.6348002219       13.0035650192        7.0763310146
  C        17.3432340583       12.2990855748        5.0770998134
  C        16.2788120888       12.6897561113        8.3456788785
  C        15.8031515138       10.6514828673        9.3897134286
  H        15.6932844556        9.2658362125        5.5418356234
  H        14.8203888891        8.9988407809        6.8273621465
  C        14.0843487650       10.7946065337        5.7133996008
  S        17.1674464364       14.4821398439        6.3132394484
  C        17.5914179226       13.6309620288        4.9427454453
  H        17.5825301935       11.5473544313        4.4605240834
  C        15.9715596624       13.2804295808        9.4935935578
  H        15.7130501426        9.5589516728        9.4421130377
  C        15.5743082863       11.3202785261       10.5461412904
  H        14.5126796849       11.7079832009        5.2712018214
  H        13.3942549048       11.1721794826        6.4525406782
  C        13.3558031230        9.9682198083        4.5965743118
  C        17.9203843913       14.3296293791        3.6671947371
  C        15.5154656690       12.6616062762       10.6245049692
  H        15.9246977129       14.3657508627        9.5113105360
  C        15.1450864908       10.9514594090       11.7890254322
  H        12.3141736710        9.7708229768        4.8820666391
  H        13.8382481706        9.0171821895        4.4671320101
  C        13.4297196654       10.5227281353        3.1959259199
  C        17.9262810221       15.7283042244        3.4438213546
  C        18.3808759938       13.4572961944        2.5771155031
  C        15.2248432903       13.3552995247       11.9066757798
  C        15.0498091337       11.9690702694       12.6299970337
  S        14.7996184036        9.4242514326       12.4778579985
  H        14.4752160719       10.5651062671        2.9615262090
  H        13.2325919951       11.6371852737        3.1967322340
  C        12.6102658416        9.7197845343        2.1998854653
  N        17.6114632127       16.7951853120        4.3144077910
  C        18.3156851585       16.2287069677        2.2428316974
  C        18.6273368679       13.9808249780        1.2913869057
  H        18.3982700114       12.3731103328        2.7805135990
  C        13.9567906689       14.1817421335       11.7705892718
  C        16.3962265860       14.1499592042       12.5041203375
  C        14.7360063634       11.5296682754       13.9606214007
  C        14.5447069966       10.1586359895       14.0195535518
  H        12.0122562334        8.9296541477        2.7458658369
  H        11.9453503153       10.4461803536        1.7326470926
  C        13.3701090955        8.9382653393        1.1173081147
  S        17.7161373977       18.2640599722        3.5751270722
  N        18.2260066699       17.6207177112        2.1494752830
  C        18.7449402621       15.4517421047        1.1327386835
  H        18.8001768689       13.2183221020        0.4841215280
  H        14.2093476219       14.9725727570       11.0440879306
  H        13.6344074665       14.6772164672       12.7323534348
  C        12.7086753490       13.3294964643       11.3289663564
  H        16.5586853787       15.0072671160       11.8927015770
  H        16.0879764738       14.5040182546       13.4662322367
  C        17.6809828026       13.4345107203       12.7670533854
  H        14.8082591971       12.2757445784       14.7796039884
  C        14.1392522350        9.4051686821       15.2507015198
  H        12.6111211225        8.2160201822        0.6917965929
  H        14.2229189160        8.3686869010        1.5351370299
  C        13.8255063675        9.7654698086       -0.1075124074
  C        18.8591781460       16.0894348126       -0.1327399908
  H        12.8916985476       12.7428180452       10.4126767459
  H        12.3613951876       12.6315328984       12.1202807098
  C        11.5935510985       14.3611522557       11.1399163729
  H        18.1485285054       12.8942660348       11.8750456094
  H        17.4496942471       12.5800867949       13.4635442127
  C        18.6642847867       14.4164795186       13.5054689742
  C        14.0600559467        7.9905829967       15.4173117278
  C        13.7963016941       10.1889899022       16.4541793069
  H        13.9994848802       10.8586930577        0.0588320376
  H        14.7644803716        9.4079000300       -0.5553008873
  C        12.8222890446        9.6380583143       -1.2600001460
  H        18.7490300395       17.1844894925       -0.1446999998
  C        19.2144989391       15.6144527950       -1.3822468465
  H        11.6647525453       14.7562120513       10.1157684549
  H        11.5402874421       15.2130011346       11.7809804053
  C        10.0984991987       13.7940294292       11.3779592992
  H        18.9820541134       15.1678988730       12.7506631651
  H        18.1747088275       14.9147875200       14.3359360791
  C        19.9155936136       13.6846336636       13.9561286615
  N        14.3454718921        7.1138357317       14.3738658417
  C        13.8130673908        7.3760774066       16.6385262355
  C        13.4446815679        9.5850626645       17.6302191720
  H        13.6807767823       11.2351206954       16.2885754226
  H        13.1385904335       10.2381581935       -2.1429353444
  H        11.8242789504        9.8616086916       -0.9224901277
  H        12.8451855726        8.6169364485       -1.6251705922
  S        19.6830055787       14.0566099698       -1.8679053838
  C        19.2902723155       16.6898821241       -2.4714194519
  H        10.1491541274       12.7287523711       11.1063493058
  H         9.7270801162       13.9042469881       12.3957774816
  C         9.0862150297       14.3327313146       10.4194685789
  H        20.2226566510       12.9647910382       13.2113802846
  H        19.5591861355       13.0715155900       14.7452930160
  C        21.0345686668       14.5485373087       14.4541459879
  S        14.2401152335        5.5527410108       14.9382969921
  N        13.7128525358        5.9507349325       16.4816624697
  C        13.5507912983        8.1211612963       17.8612921345
  H        13.3297359355       10.0651757724       18.5625758321
  C        19.8414146003       14.7246452500       -3.4792297140
  N        19.6694377576       16.0621590169       -3.6064410353
  O        19.1184969720       17.8798730771       -2.2944530151
  H         8.3317386844       14.7182424841       11.0458794443
  H         9.4408267372       15.0863855536        9.7485085004
  C         8.5001695513       13.1447554040        9.5775756036
  H        20.8797206058       14.7659151715       15.5218266012
  H        21.9454133749       13.9804753965       14.3046838572
  C        21.3741575638       15.8563491175       13.7634205193
  C        13.1479308092        7.3358914429       18.9735935853
  S        20.2871258809       13.7078205771       -4.9070125079
  C        19.7656244912       16.8290443400       -4.8272682132
  H         9.1939830608       12.7940674072        8.7904992157
  H         8.2128876224       12.1659478925       10.0414386178
  C         7.2808492110       13.6292547896        8.7433337979
  H        20.5256783235       16.4869159743       13.6963628905
  H        21.5278957291       15.6926712713       12.6652230368
  C        22.5140612527       16.5144778231       14.5359008875
  H        13.6441324109        6.2912027780       18.9591723466
  C        12.7160142170        7.6466311262       20.2548583796
  H        20.4021068716       16.3928170290       -5.5624390890
  H        20.2771159020       17.7355001738       -4.4762413603
  C        18.3618681029       17.0569685035       -5.4503561276
  H         7.3012149196       12.9547608176        7.8828276612
  H         7.3111735769       14.6429556875        8.4489166769
  C         5.9346631739       13.5754857528        9.5399795717
  H        22.8273137192       15.9700549441       15.3928984873
  H        23.3467693000       16.6645372758       13.8164903057
  C        22.2580574015       17.8294075885       15.0855557024
  S        12.1989919330        9.1712070964       20.7988126555
  C        12.7173937393        6.5625656585       21.2498069220
  H        17.5805988600       17.3463392160       -4.7707059638
  H        17.9276680324       16.1337335635       -5.7937655672
  H        18.4810180646       17.8556691535       -6.2958866355
  H         5.8834644956       12.5891857907        9.9137440390
  H         5.9625491288       14.2477017164       10.3408086473
  H         5.0419733024       13.7232983182        8.9025561692
  H        23.0744982541       18.0487542620       15.8130455923
  H        22.4282789066       18.6177450828       14.2930242109
  H        21.3341650197       17.9789472172       15.5564769832
  C        12.1626084990        8.3794178460       22.3770333090
  N        12.2429256208        7.0063629511       22.3947995526
  O        13.0542570289        5.3941883960       20.9996225355
  S        11.8729405637        9.1453034708       23.9155443952
  C        12.1074945142        6.1816129022       23.5300698703
  H        11.8506254829        5.1783166440       23.2477815968
  H        11.4099793099        6.5653522504       24.2054356646
  C        13.4329422019        5.9182461097       24.1507689118
  H        14.1682804718        5.3475933518       23.5368600489
  H        13.2909070866        5.4464476461       25.1243109177
  H        13.8600860445        6.8987098171       24.3242224544
