352
 i =    26800, time =    26800.000, E =        24.8812626177
  H        12.1100265904        6.8341229411       32.3291431540
  C        11.8762965050        5.8311492057       32.4558681024
  H        12.7626249682        5.2109947750       32.4387600498
  C        10.8824131328        5.4816218518       31.3755242913
  C        11.2172880978        5.6782592945       33.8272552805
  C        11.2411787086        5.9288302230       29.9382193633
  H        10.6557200070        4.4384873119       31.5001609033
  H         9.9753820633        6.0104201669       31.7014984522
  H        10.0902999540        5.7338599543       33.6475177419
  H        11.3078614386        4.6656955336       34.2359891129
  H        11.3224271530        6.5010239720       34.5879016547
  C        10.4455526089        5.3208100780       28.8313007220
  H        12.3114944556        5.6413009836       29.8461815677
  H        11.2837070161        7.0476281081       29.6982695817
  C        10.9102338968        5.7627714620       27.4817723627
  H        10.4513309070        4.2488904788       28.9498604923
  H         9.4084087730        5.5445124253       28.8832143917
  C        10.0484333258        5.1334210616       26.3429630188
  H        11.9527330763        5.4110199362       27.4471165590
  H        10.9732223124        6.8716843489       27.4406695980
  C         8.7165311212        5.9700902038       26.1492310795
  H        10.7383963930        5.1148244606       25.5069982143
  H         9.8112607267        4.0809218610       26.4774346524
  C         7.6427854875        5.2656377563       25.3651720339
  H         8.3127962281        6.0688097645       27.1174306178
  H         8.8876889972        7.0166553251       25.8354833909
  C         7.3215157650        3.8696026159       25.9828121858
  C         8.0766911026        4.5427490224       24.0711928895
  C         6.3733055800        6.1089988318       25.2439056595
  C         7.5738014902        2.8098040512       25.1058939869
  C         6.8248629927        3.5552011451       27.2652615072
  C         8.0378590943        3.2376848740       23.8936171417
  C         8.5012949226        5.2657425239       22.9372937165
  H         6.6181186578        7.1009615488       24.7945469244
  H         6.0578954369        6.2046092548       26.2814389164
  C         5.2260680155        5.4013297534       24.5426358282
  S         7.2700072560        1.3782037371       25.9513410655
  C         6.6147889906        2.2386631186       27.3258788607
  H         6.6063699864        4.3776916342       27.9139560916
  C         8.3626101705        2.6672143389       22.6776092567
  H         8.7298474637        6.3126215076       22.9402866692
  C         8.9129455830        4.7046773955       21.7638618111
  H         5.3632001531        5.1160188462       23.5214405877
  H         5.0633035741        4.4796119405       25.0787727522
  C         3.9758225952        6.2920779019       24.7514122904
  C         6.0986068732        1.5339368465       28.5791500989
  C         8.7822926273        3.3769886461       21.5624547518
  H         8.3398286554        1.5815745206       22.5989474833
  C         9.1706458229        5.1704614818       20.4817650388
  H         3.2391684140        5.9631952305       23.9892112825
  H         4.1747477141        7.3289478943       24.4618691611
  C         3.2658055224        6.3128088638       26.1468919151
  C         6.1342532109        0.1372484869       28.8046373103
  C         5.5287594633        2.3081552978       29.7214442612
  C         9.1053234999        2.7280940481       20.3285919199
  C         9.3097002024        4.0669774139       19.6291569368
  S         9.5185020237        6.6607186091       19.7442990579
  H         2.6430652864        7.1623217490       26.2105453801
  H         4.0141557983        6.3622010327       26.9574456922
  C         2.3998724363        5.0817178375       26.3580518913
  N         6.4767409770       -0.8320329778       27.8129022230
  C         5.7149688499       -0.4602866109       30.0118945471
  C         5.3880161104        1.7773110521       30.9965687634
  H         5.3774844538        3.3655191203       29.5307819658
  C         7.9489213826        1.8220998788       19.8612695110
  C        10.4514117062        1.9257330631       20.2433250830
  C         9.5149151518        4.4753623552       18.3282009515
  C         9.6732012810        5.8286039103       18.2241886564
  H         1.6814477987        5.2163332794       25.5320325356
  H         2.8570770597        4.1044470814       26.1703568537
  C         1.6494650144        5.0976948375       27.6696481529
  S         6.2501852853       -2.3542987438       28.4876987724
  N         5.8239948844       -1.8608786749       29.9935243122
  C         5.4248809933        0.2861993460       31.1710481702
  H         5.3357069113        2.4412770901       31.8602949742
  H         7.6845150311        1.1273583087       20.7359509898
  H         8.2701479626        1.1417693749       19.0677455933
  C         6.7094831852        2.6216719542       19.3384552175
  H        10.5592367971        1.8488817545       19.2052906070
  H        10.3980545012        0.8824057731       20.6403010916
  C        11.7006897594        2.7110567732       20.8360302636
  H         9.5432368846        3.7144277058       17.5827787618
  C        10.0284291517        6.5938323279       16.9971571784
  H         0.8497669916        4.3816181852       27.5286881655
  H         1.2079385953        6.0984949272       27.7751289815
  C         2.6339369595        4.8555846046       28.8751201450
  C         5.2287279262       -0.4040575202       32.3916830863
  H         7.0447908670        3.2210905451       18.5035021450
  H         6.3645721002        3.3670364503       20.1384569308
  C         5.6383164413        1.5815179351       18.8859418262
  H        11.4980778271        2.9811927042       21.8467653381
  H        11.8547959138        3.6681994404       20.2841282748
  C        12.9910025448        1.9166519679       20.7164763901
  C        10.1081380908        7.9874134334       16.9290475004
  C        10.1463582292        5.8438979378       15.7025990125
  H         2.8417895805        3.7703373205       28.9846646098
  H         3.6044176634        5.2576010742       28.6390826962
  C         2.0223572151        5.3679020969       30.1770095537
  H         5.5069201992       -1.4388933333       32.3341817632
  C         4.7857569742        0.0244322510       33.6668522900
  H         5.4362395826        1.0095992155       19.8222669394
  H         5.9781762874        0.8006264271       18.2167671271
  C         4.3825971709        2.3096946852       18.4360255223
  H        12.9840718387        1.1945650872       21.4693130501
  H        13.1199378729        1.4002515664       19.7629819782
  C        14.2534969507        2.7394108691       20.8886741269
  N         9.8694111384        8.8871086402       17.9915347410
  C        10.4590817031        8.6797963508       15.7647875305
  C        10.4267746852        6.4977405719       14.5399007489
  H        10.0055852493        4.7284396500       15.6880980846
  H         1.6415175304        6.3388930291       30.1143852244
  H         1.2532029831        4.6548175439       30.5940428073
  H         2.6113844877        5.6210695067       31.0064001142
  S         4.3293446236        1.5884438533       34.1692251391
  C         4.6176445792       -1.0244305021       34.7342545995
  H         4.1937903973        3.1120954084       19.1805082830
  H         4.5746480657        2.7874855440       17.5305366609
  C         3.2066154732        1.3794669412       18.4766446224
  H        14.2670308125        3.5585249393       20.1965221255
  H        15.0835288791        2.0588052055       20.8053906084
  C        14.4751009829        3.2449912548       22.3126187904
  S        10.0776550277       10.4305594550       17.4703509091
  N        10.5105809791       10.0920452643       15.9162229839
  C        10.6338537956        8.0116589199       14.5101680706
  H        10.4863657587        5.9296236369       13.5779875965
  C         4.2512074215        0.9676514752       35.8529485094
  N         4.2560750158       -0.4153766233       35.9077241975
  O         4.7157548749       -2.2520179220       34.5435826736
  H         2.2481720730        1.8983504107       18.5141657313
  H         3.2023627159        0.8753804950       19.3985058687
  C         2.9428801263        0.4388558168       17.2664579231
  H        15.3612034890        3.8719799081       22.2260800181
  H        13.7141127190        3.7606780171       22.8579824461
  C        14.9446326675        2.1287236891       23.2720772428
  C        10.8620317970        8.7698376873       13.3417706823
  S         4.1604393543        1.8641757768       37.3184081942
  C         4.3281509237       -1.2209599405       37.1218388984
  H         2.6808210550        1.0845176872       16.3790902454
  H         3.8455375601       -0.1443468260       17.0404931049
  C         1.8277508136       -0.6348255696       17.5835225440
  H        14.5277297599        1.1535163376       23.0102475980
  H        14.5268492227        2.3798393857       24.2586182714
  C        16.4524197236        2.1998290709       23.6325828184
  H        10.6157414264        9.8535876789       13.4230652258
  C        11.4224547502        8.4496619442       12.1107492751
  H         3.7380660576       -0.8234822599       37.9087080222
  H         3.8308413627       -2.1802049724       36.9843589833
  C         5.7715120318       -1.5103831259       37.5453463596
  H         1.7150854129       -1.3251859531       16.6916595224
  H         0.8193890492       -0.1889252811       17.7437823019
  C         2.0299974898       -1.5331995414       18.8514140952
  H        16.4901058046        3.0069533676       24.3624059911
  H        16.6630049568        1.3516695473       24.2068174668
  C        17.5327315455        2.2274281425       22.5084350859
  S        12.1848775038        7.0072403148       11.6397630589
  C        11.4973725316        9.5473891325       11.0792097681
  H         6.2791945981       -0.5742578754       37.8683144344
  H         5.6616315948       -2.1586081861       38.4144704141
  H         6.2608479789       -2.1396849493       36.7386938259
  H         1.5220095041       -1.2664600536       19.7032652577
  H         3.1148724393       -1.5104348051       19.0875302442
  H         1.6702531651       -2.5396031687       18.5915150172
  H        18.5154175918        1.8879323438       22.8471489229
  H        17.6779296843        3.2134899213       22.0854554559
  H        17.1636453635        1.4854609978       21.7914119990
  C        12.5122515371        7.7678081838       10.0755524516
  N        12.0120603457        9.0020885391        9.9283311467
  O        10.9775327532       10.6810777680       11.1831889222
  S        12.9440632109        6.9395678325        8.6287417947
  C        12.2649514923        9.7934707898        8.7538031341
  H        12.5332090681       10.8042708256        9.1665971746
  H        13.0660399998        9.4663493068        8.1189022207
  C        10.9827887644        9.8675840118        7.9303898587
  H        10.5738771930        8.8887205445        7.8308088015
  H        10.1984424570       10.4904629371        8.4073352617
  H        11.2315987452       10.3279646980        6.9932222984
  H        21.1595550370       10.9129282118        3.8688196443
  C        21.9568030267       10.2325291718        3.9534293498
  H        21.4794405536        9.2721093190        3.9983112664
  C        22.8404782730       10.5453025698        5.1651063789
  C        22.7077293286       10.3459948051        2.5288709410
  C        22.0197890865       10.8797812438        6.3578831680
  H        23.4340807879        9.7260274306        5.5140551830
  H        23.4161832913       11.4176348675        4.9243233014
  H        22.0190101044       10.7320596948        1.8203976206
  H        23.0593038959        9.3746502594        2.1839732072
  H        23.5796826494       10.9771030578        2.6851058057
  C        21.2107545213        9.6804330917        6.9040846310
  H        22.6892544772       11.2334530409        7.1470400807
  H        21.3694092755       11.7396523593        6.1659646121
  C        20.3750642081        9.9694114230        8.1579966469
  H        21.9694998691        9.0055050382        7.2184234430
  H        20.5192173844        9.2164536254        6.1213931918
  C        19.1338373385       10.8552578561        7.8882218205
  H        21.0136143122       10.4911636663        8.7953496202
  H        20.1221926198        9.0416569390        8.7131773664
  C        17.9901804792       10.0452762036        7.2277271021
  H        18.8438871148       11.2768646207        8.8317126703
  H        19.4106376801       11.6325186754        7.2201141263
  C        16.7661095461       10.8814324623        7.0124008084
  H        17.6808601293        9.2791736231        7.8346128520
  H        18.2798941866        9.4547086580        6.3055995636
  C        17.1050567180       12.2062735178        6.2875853411
  C        16.2962083500       11.5881234972        8.1837765846
  C        15.5896279921       10.2102301597        6.1942697265
  C        16.6853322037       13.3066923280        7.0280631532
  C        17.6416530031       12.5601588941        5.0804580236
  C        16.2422478421       12.9585790424        8.2614430800
  C        15.6729279572       10.9293249612        9.2760998808
  H        15.8719383672        9.6236965609        5.2633008683
  H        15.1714027904        9.4045299017        6.7865086897
  C        14.4612918666       11.2656749185        5.9032225950
  S        16.9473542813       14.8262769022        6.1787710933
  C        17.5201339111       13.8830931967        4.8033790987
  H        17.7842315566       11.7473835699        4.4175170295
  C        15.7896191233       13.5846524751        9.3486307790
  H        15.5136575626        9.8291636597        9.2123885081
  C        15.2486924591       11.5817818837       10.3873872159
  H        14.7682211886       12.1882856833        5.4312795962
  H        14.0199682244       11.5222259522        6.8766091772
  C        13.4452427811       10.6573817329        4.8435304699
  C        17.8721637781       14.4963863797        3.4939898334
  C        15.3490344289       12.9468037960       10.5315036207
  H        15.8326118682       14.6349714885        9.3681715381
  C        14.8324214513       11.1619281817       11.6679694381
  H        12.4687846598       11.0766599306        5.0948169330
  H        13.4489147252        9.5578559100        4.9081341411
  C        13.8238432602       10.9830209529        3.4353014692
  C        17.9080150350       15.9311870121        3.2054401741
  C        18.3360193230       13.6738845019        2.3625385883
  C        14.8797508495       13.6555380178       11.8054819095
  C        14.5301301790       12.2462481876       12.4622913085
  S        14.4502713297        9.6511510568       12.3631924200
  H        14.6969360809       10.4495400635        3.1364832177
  H        14.2489077881       12.0090010228        3.2489378780
  C        12.7259879494       10.8253864235        2.4419546029
  N        17.5767376311       16.9671761008        4.1547506285
  C        18.2215674883       16.4358770222        1.9398349771
  C        18.6096969401       14.2132354623        1.1282507651
  H        18.3004763555       12.6123775416        2.5020042517
  C        13.5556668750       14.4879145810       11.4192483644
  C        16.0093701027       14.5023537662       12.5172574013
  C        14.1689081315       11.8463043473       13.7126666510
  C        14.2122942254       10.4704989820       13.8811206542
  H        11.9482681202       10.3136956910        2.9443658464
  H        12.3191675333       11.7516827941        2.1548775850
  C        13.1433806460       10.0628957663        1.1974569412
  S        17.7737633558       18.4108192253        3.3800630209
  N        18.1112988931       17.8284044364        1.8897046597
  C        18.6520759478       15.6584819124        0.8115544944
  H        18.7873203785       13.5167755535        0.3418455681
  H        13.9583336599       15.3290332388       10.8151909448
  H        13.0143273346       14.8760289126       12.2382096007
  C        12.5323998753       13.7287398298       10.5327102433
  H        16.2062172793       15.2343573529       11.7463869193
  H        15.6444936285       14.9763764609       13.4235749604
  C        17.2482720262       13.6868988365       12.9030790701
  H        13.8553561694       12.6054337365       14.4251471690
  C        13.9491993045        9.7691394740       15.1695444821
  H        13.4794598903        9.0616244268        1.4435688648
  H        14.0049126651       10.5159042533        0.7068663156
  C        12.1628893601        9.9937548337        0.0283541335
  C        19.0126186933       16.2518614389       -0.4187623227
  H        12.9425642308       13.6783930265        9.5795779085
  H        12.2727037212       12.7711192439       11.0346613097
  C        11.1872698454       14.5436109182       10.5766627670
  H        17.5267735754       13.0996792542       12.0006997492
  H        17.0874617060       12.9520086758       13.6732098703
  C        18.4204142519       14.5448113385       13.4187743772
  C        13.8514627113        8.4104854110       15.3484022092
  C        13.7185737942       10.6258442214       16.3732069301
  H        11.8668278168        8.9957888830       -0.2294174428
  H        11.1670932998       10.4714396060        0.2801489788
  C        12.6067683785       10.7521615979       -1.1894411704
  H        18.9864292774       17.3019961354       -0.4058577387
  C        19.2179750961       15.7782062198       -1.7001558757
  H        11.3359617940       15.5117316915       10.2321384646
  H        10.9121091156       14.5838620326       11.6252381612
  C        10.1297944867       13.8708970888        9.7393550852
  H        18.8566009582       15.0900177062       12.5973305893
  H        17.9883036448       15.3625090132       14.0274745128
  C        19.4778259347       13.6001065180       14.1322848306
  N        14.1725908505        7.4621095058       14.3667853045
  C        13.6102691077        7.7755821206       16.5363033674
  C        13.4235596240       10.0212192195       17.6234990959
  H        13.6364718995       11.7306739136       16.2803691986
  H        13.6106051433       10.5130518115       -1.4181541491
  H        12.4278261777       11.8260987149       -1.0735616202
  H        11.9723636621       10.4962250274       -2.0518628028
  S        19.2807015216       14.1053175284       -2.1881140024
  C        19.5828647321       16.7816161779       -2.7838085286
  H        10.2041407643       14.1842658481        8.6556709850
  H        10.1730558913       12.7047034251        9.6875287729
  C         8.7581777917       14.3115377352       10.3408807668
  H        19.5770827434       12.6696846868       13.5830510119
  H        19.0298677849       13.3066310881       15.0974559805
  C        20.8442594595       14.2910828824       14.2611144776
  S        14.0160963069        5.9937054818       14.9786822614
  N        13.5540583711        6.4101267353       16.4643321113
  C        13.3870144900        8.5147864136       17.7190606707
  H        13.2407463744       10.5909789164       18.5101899619
  C        19.8267654987       14.6955614054       -3.7524796959
  N        19.8989243567       16.0709553183       -3.9089769473
  O        19.6575466636       18.0081956082       -2.6832720991
  H         8.6126536630       13.6058947568       11.1224028563
  H         8.7589038090       15.2441204066       10.9245961478
  C         7.7755794609       14.2075383844        9.2238946199
  H        21.5545663136       13.6450049233       14.8437731000
  H        21.3470300625       14.4703625327       13.2823092442
  C        20.7664743232       15.5571770301       15.0245879470
  C        13.0456112656        7.7996473967       18.9012238796
  S        20.1163803471       13.7155549124       -5.1968778561
  C        19.9887156073       16.6790700881       -5.2432646885
  H         7.9124522591       14.9263764742        8.4354631350
  H         7.7191023406       13.1613342325        8.8414545870
  C         6.3730994535       14.4318975178        9.9481439038
  H        21.5803559942       15.4628676543       15.8205305582
  H        19.8861718739       15.6233398264       15.6963894601
  C        20.9938289248       16.8451132590       14.1765126536
  H        13.4144195874        6.8623185231       18.9013981974
  C        12.5871689119        8.2271715584       20.1305203985
  H        20.8803162819       16.2533254741       -5.8133167920
  H        20.1682629749       17.7339479876       -5.1989060902
  C        18.6486820249       16.5825836208       -6.0208545766
  H         5.5208835936       14.5345625568        9.3124556811
  H         6.4513806494       15.3886306800       10.5450815610
  C         5.9576104612       13.3361625125       10.9099315002
  H        20.5912060030       16.7643550603       13.1906305808
  H        20.2583584627       17.5572258721       14.6033543259
  C        22.4715271219       17.3523567953       14.1087289343
  S        11.9119749018        9.7876629488       20.5723960643
  C        12.5114199012        7.2397320464       21.2446434989
  H        17.8677924694       17.2209103466       -5.6337430095
  H        18.1662944835       15.5981402777       -5.8686567627
  H        18.6631151456       16.7307980873       -7.1134984337
  H         6.1708145737       13.5437695478       11.9716103185
  H         4.8802596993       13.1927000626       10.8377889953
  H         6.4808905758       12.4177196375       10.6382068456
  H        22.9264053930       16.8353972234       13.2647122425
  H        22.3555025313       18.3695417977       13.6439029733
  H        22.9857835422       17.3567109285       15.0321810676
  C        11.5534594260        9.0417590506       22.1232886083
  N        11.7713979418        7.7134901486       22.2418972045
  O        12.7698434601        6.0520367530       21.0970533766
  S        10.7821755194        9.8320934002       23.5075404965
  C        11.6464705299        6.9764603944       23.5331655227
  H        11.4164304978        5.8763722587       23.2345951000
  H        10.7726529211        7.2536520485       24.1108033614
  C        12.9439953865        7.0289703371       24.3444188792
  H        13.8170050022        7.4950867418       23.8640925817
  H        13.2254497934        5.9846242189       24.5894331128
  H        12.8493329944        7.4772829917       25.3044068786
