352
 i =     8600, time =     8600.000, E =        24.0651596850
  H        12.2059879579        6.9698795222       32.1484481853
  C        11.4645763517        6.1996974195       32.2386634442
  H        12.0658802908        5.3312141976       31.9990963420
  C        10.3260604514        6.3265406138       31.2542461780
  C        11.0828204417        6.2674512743       33.7203445335
  C        10.7449904211        5.5867065116       29.9335383143
  H         9.3875757966        5.9217760317       31.7183919386
  H        10.1867220765        7.3872011957       30.9792427867
  H        10.2305700713        6.9351510410       33.8291751162
  H        10.7938098088        5.2431484789       34.0647956041
  H        11.7461711828        6.8196254798       34.4302709136
  C         9.7955346635        5.7411249582       28.7404935312
  H        10.8645574142        4.5592149721       30.3006931487
  H        11.8136736157        5.8457148581       29.6287535263
  C        10.4701795147        5.5005665918       27.3790374108
  H         8.9563771525        4.9859263332       28.8963644486
  H         9.2397053197        6.7400125310       28.6935634670
  C         9.4256093745        5.0952975525       26.3794717387
  H        11.2269159394        4.6288048878       27.5903152046
  H        11.0577288855        6.4308887594       27.1342710161
  C         8.1547802004        5.9360035238       26.1291462161
  H         9.8387448307        4.8811134115       25.4081266770
  H         9.2073785347        4.0820016319       26.7266158285
  C         7.0471241542        5.1305650465       25.3423825681
  H         7.7308578112        6.2654067326       27.0122633211
  H         8.4486095725        6.8095424239       25.5935090710
  C         6.7822024432        3.7550013622       25.9946217732
  C         7.5249384748        4.4051533321       24.1360290950
  C         5.7686777892        5.9897826324       25.1249894499
  C         7.1481496255        2.6539834995       25.2932916255
  C         6.1185431770        3.3722632797       27.1593859857
  C         7.6384434696        3.0332420201       24.0641519299
  C         7.9803384221        5.0718470891       23.0454062505
  H         5.9239826624        6.8514991105       24.4378254342
  H         5.5123873089        6.3208698607       26.1278270445
  C         4.5192801166        5.1346293860       24.6866626368
  S         6.8549644546        1.2094246583       26.0944384275
  C         6.1064232254        2.0520225987       27.3674511725
  H         5.7239840914        4.1309209724       27.8042796746
  C         8.0354385664        2.4382615640       22.9099792161
  H         8.1494281427        6.1237477890       23.2325365444
  C         8.3822211497        4.5152628619       21.8352917779
  H         4.6481596147        4.8173558246       23.6548999059
  H         4.5186591990        4.3145664111       25.3723098466
  C         3.2149955098        5.8258578370       24.8018280102
  C         5.8109826043        1.3838472994       28.6985000129
  C         8.5205852216        3.1496090926       21.7811340956
  H         8.0888782182        1.3868664518       22.8736360747
  C         8.8625517131        4.9461609563       20.5976077920
  H         2.4324257246        5.2540475589       24.3923783403
  H         3.1576077167        6.7438086960       24.1322923146
  C         2.8289547296        6.1102498541       26.2899969112
  C         5.7601630758       -0.0037702577       28.9849670171
  C         5.5135098002        2.2324889268       29.7831145927
  C         8.9258000737        2.4606848885       20.5017107845
  C         9.1101946525        3.8014628535       19.7951335315
  S         9.1052966615        6.4972323297       19.8991098577
  H         1.9728485968        6.7264696822       26.3661531184
  H         3.5289231893        6.7604933014       26.8508662427
  C         2.5239300597        4.8596366564       27.0717907178
  N         5.7988779494       -1.0260730710       28.0446617605
  C         5.6549475954       -0.4819480778       30.2690206817
  C         5.2361223632        1.7623173809       31.0596171868
  H         5.4957645660        3.2867414941       29.6353954182
  C         7.8045846656        1.5397947715       19.9476683915
  C        10.2458161696        1.7394151958       20.8220598116
  C         9.4240388113        4.2615560384       18.4912858298
  C         9.4510753306        5.6667080645       18.3905538989
  H         2.3720512983        3.9557564743       26.5314493472
  H         3.3310073170        4.5684393073       27.5872456652
  C         1.3713812450        4.9370827522       28.1587120456
  S         5.8686267749       -2.4347930981       28.8681678281
  N         5.7244572225       -1.9061747793       30.3519914823
  C         5.3040640837        0.3324393756       31.3499235578
  H         5.0849162027        2.5272764344       31.8599271626
  H         7.4536256216        0.9664589538       20.7768221091
  H         8.2171770765        0.8716008984       19.2066157352
  C         6.6748937304        2.3457822061       19.3236728043
  H        10.4638771384        0.9833768006       20.0809161659
  H        10.0551784113        1.2175046451       21.7611520471
  C        11.3637703874        2.7022991831       20.9373055861
  H         9.7045589396        3.4863366108       17.7314201178
  C         9.8940321329        6.3360770789       17.1644737738
  H         0.7794762195        4.0028042967       28.2259161923
  H         0.6135632766        5.6873587062       27.8933600298
  C         1.9911500135        5.3155674915       29.5526737812
  C         5.0548654203       -0.3515218918       32.5674626801
  H         6.9927316602        2.9059942985       18.5127867353
  H         6.3549246470        3.0518760207       20.1770238381
  C         5.4907461604        1.4880734498       19.0022177015
  H        11.0098462831        3.5295021389       21.5573941618
  H        11.6134291578        3.0912441487       20.0239032800
  C        12.6595967490        2.1103653202       21.5397961923
  C         9.9196540648        7.7382711764       16.9056009461
  C        10.1981113119        5.4986142067       15.9563239588
  H         2.7305349617        4.5748947879       29.8399754702
  H         2.3386677601        6.3342777535       29.5523750817
  C         0.8481939038        5.3092178606       30.4990179278
  H         5.2184587033       -1.4335719969       32.5165637046
  C         4.7544700147        0.1201194925       33.7701835794
  H         5.0884952730        1.2066882223       19.9903937823
  H         5.6658788034        0.5585804413       18.3630705983
  C         4.4770716116        2.3366148455       18.2788461460
  H        12.4175245433        1.2031422017       22.0824682774
  H        13.3155771247        1.7138860855       20.7747744618
  C        13.2296793194        3.1710648942       22.5615322656
  N         9.5836429737        8.7303272667       17.8560720014
  C        10.2168442564        8.2605438094       15.6975319148
  C        10.4708237969        6.0889926763       14.7053954421
  H        10.0399754663        4.4471514632       15.9454787220
  H         1.3709181446        5.1812996029       31.4090218226
  H         0.3616598340        6.2879766888       30.5707369813
  H         0.0947173019        4.5316625402       30.2935669794
  S         4.6020728866        1.7610955253       34.3413285122
  C         4.6215987325       -0.8959885891       34.8597496544
  H         4.6610612054        3.4294215060       18.3370642612
  H         4.6578149819        2.2385283305       17.1916936265
  C         2.9923108223        2.0011061507       18.6017032523
  H        12.5015224482        3.6472191811       23.1551923078
  H        13.6624058683        4.0073824673       22.0740419022
  C        14.3238182112        2.4756846798       23.3418674022
  S         9.6597494560       10.1572122843       17.1627829917
  N        10.1873519971        9.6530686958       15.7034846732
  C        10.5603986075        7.5321691863       14.6126076765
  H        10.7912246482        5.4502782821       13.8625761801
  C         4.4218329633        1.1033891281       35.9631868627
  N         4.4174020592       -0.2655807364       35.9907372936
  O         4.5573113938       -2.1047167864       34.6487985418
  H         2.4329709175        2.8985657473       18.4188641842
  H         3.0581194316        1.6708913810       19.6354604708
  C         2.3521965739        0.7650856705       17.8453785265
  H        14.5958546139        3.0054286786       24.1935619571
  H        13.9836080358        1.4783839428       23.6224143295
  C        15.6549681648        2.3155209571       22.5555426464
  C        10.9154543750        8.2954207513       13.3904760445
  S         4.3673669853        1.9599018980       37.4969608157
  C         4.3371550544       -1.0689531017       37.2091624287
  H         1.2904672443        0.5392137609       18.1724816933
  H         2.1322726576        1.0795349657       16.8218005713
  C         3.0443789410       -0.6035643030       17.8402664743
  H        15.9098436429        3.1060451337       21.9173798301
  H        15.5957860146        1.4906974053       21.7907190037
  C        16.8392190433        2.0265082756       23.4154977204
  H        10.8864235539        9.3914657353       13.3926801270
  C        11.4859960909        7.8981939653       12.2136383656
  H         3.5861747208       -0.6643286752       37.8557780829
  H         3.9530700926       -2.1085044111       37.1094837550
  C         5.6260819362       -1.1357973473       38.0102683792
  H         2.9698087837       -0.9910261801       18.8502310588
  H         4.0850327247       -0.5308602970       17.4504237237
  C         2.1936869831       -1.5974924243       17.0087645490
  H        17.0443944208        2.8196943245       24.1409237816
  H        16.5725889136        1.1667990336       24.0502749414
  C        18.1654680605        1.9803680279       22.5675889098
  S        12.0111287874        6.3434639780       11.8208945974
  C        11.6124411750        8.9147903098       11.0780028473
  H         5.6619191139       -0.2938713777       38.6245387026
  H         5.6300073883       -1.9962615101       38.7406346086
  H         6.6025323565       -1.2624765252       37.3718080918
  H         1.1135601931       -1.5250888062       17.0446813706
  H         2.5603857919       -2.5297888348       17.3623748974
  H         2.4330077512       -1.4780493132       15.9154535657
  H        18.8165559697        1.2879454445       23.0211204437
  H        18.7188157342        2.8652530095       22.3377544913
  H        18.0700047998        1.4852110690       21.5761222890
  C        12.3094251350        6.9006058264       10.2057505093
  N        12.2702417125        8.3125167000       10.1293104368
  O        11.3653318047       10.1093119179       11.2313168343
  S        13.1274303166        6.0217038659        8.8073069399
  C        12.4419464263        9.0208442010        8.9231729532
  H        12.5962387056       10.0641291332        9.1637802618
  H        13.2678784066        8.7162705996        8.2737994187
  C        11.1446835208        8.9767601200        8.1428989572
  H        10.6769229770        8.0256191206        8.5412035148
  H        10.4947995364        9.7467576807        8.3631715824
  H        11.2678506773        8.8232790094        7.1619559674
  H        20.6366929499       10.4793624243        3.0705837204
  C        21.5199766881        9.9431608838        3.2692514401
  H        21.2854315904        8.9234535377        3.5032425867
  C        22.2539091286       10.4847588299        4.4856559724
  C        22.3416489924        9.8862443986        1.9559565180
  C        21.4839662923       10.5691961808        5.7561961096
  H        23.2112615601        9.9895575704        4.6965018665
  H        22.5388165740       11.5541684391        4.2759155658
  H        23.1234300756        9.1062697294        1.8912519375
  H        22.6663439559       10.8777589989        1.8359761592
  H        21.7186766378        9.6495262574        1.1251540966
  C        20.7778806983        9.3343409649        6.2260908500
  H        22.2831054875       10.7192650323        6.5289347271
  H        20.8989919186       11.5072507830        5.8546013611
  C        20.2290141471        9.4518992513        7.6121920904
  H        21.5676153576        8.5690284458        6.3099826026
  H        19.9679173689        9.1909905604        5.5635907351
  C        19.0022862215       10.4110193069        7.6060407901
  H        21.0164630435        9.8195421709        8.3696085019
  H        19.9980769429        8.5783734271        8.0652304681
  C        17.7080315007        9.7860893774        7.0413507443
  H        18.7586023934       10.8182208827        8.5810668941
  H        19.2363685826       11.4145643595        7.2012657124
  C        16.4196025160       10.6477319333        6.9017179752
  H        17.4087674422        8.9327101049        7.6789209495
  H        18.0437274685        9.3270089669        6.1330665448
  C        16.8352202082       12.0191003373        6.3509819907
  C        16.0373757677       11.2449445902        8.2149391040
  C        15.3189650383        9.9484083644        6.0071247005
  C        16.5891615969       13.0988022179        7.1867877526
  C        17.4520842647       12.4019152216        5.1499081407
  C        16.1905123113       12.5982377638        8.4190850323
  C        15.6774137587       10.5799567027        9.3798951202
  H        15.6103854147        9.9782054763        4.9039894847
  H        15.1061627693        8.9416904609        6.4029739447
  C        13.9404175580       10.6756765075        6.1174196851
  S        16.9777083316       14.6672793425        6.4212007626
  C        17.6112343454       13.7690857256        5.0063991901
  H        17.6753881665       11.7123134323        4.3299845714
  C        15.8609883432       13.1634235479        9.6192559793
  H        15.5728566841        9.5413473030        9.3454914039
  C        15.2882323436       11.1605753714       10.5469818682
  H        14.1484556276       11.6617304715        5.7342479296
  H        13.5600158622       10.6011117798        7.1375866998
  C        12.8504503078       10.0154749406        5.2295697433
  C        17.9967432974       14.4850820236        3.7334379785
  C        15.3435087625       12.4625415744       10.6629179689
  H        15.8278299709       14.2225492407        9.5578756477
  C        14.7848828761       10.7548992036       11.8049980776
  H        11.8695721309       10.1744182452        5.6528204580
  H        13.0952439917        8.9255580735        5.1762041987
  C        12.8480920321       10.5829904529        3.8633980515
  C        17.8767812305       15.9156210218        3.4948188693
  C        18.5187087562       13.6970861795        2.5906448642
  C        14.9382334072       13.1976576066       11.9707753910
  C        14.5580504770       11.8545128455       12.5916837448
  S        14.4835369323        9.3016668928       12.6476554197
  H        13.5914860153       11.3097036495        3.7635552963
  H        11.9307040066       11.1473874242        3.6505085587
  C        13.0761086356        9.5311438514        2.7231163223
  N        17.4497064132       16.9346372724        4.4073739394
  C        18.1909101630       16.5249769171        2.2703922935
  C        18.8092595844       14.3506875961        1.3821867669
  H        18.7137473089       12.6894983888        2.7432739682
  C        13.7341743033       14.1434853431       11.7994657634
  C        16.1355383443       13.9233843050       12.6097785945
  C        14.0866439603       11.5321500448       13.8419914091
  C        14.0422568947       10.1541595568       13.9993129473
  H        13.6333299662        8.6796075932        3.1494293717
  H        12.0916296904        9.1292576625        2.5051533711
  C        13.5750555039       10.2754761715        1.4504512993
  S        17.3290282557       18.3775443181        3.7461227820
  N        17.8873993838       17.9634895823        2.2966717554
  C        18.6206654960       15.8194037135        1.1559189387
  H        19.2369359272       13.7732327344        0.6138743300
  H        14.1072399442       15.0490190714       11.3421990930
  H        13.4636924118       14.4897049748       12.7737407080
  C        12.5347543771       13.4905955837       11.0703394353
  H        16.4711839930       14.5143133994       11.8255549409
  H        15.7674662969       14.6195652907       13.3891665836
  C        17.3104049607       13.0111634683       13.0548404755
  H        13.9490864710       12.3626358991       14.5662202753
  C        13.7255854738        9.4217062696       15.2338595108
  H        14.5976595598       10.1604219968        1.3742301306
  H        13.1715581847       11.2263178231        1.3713928130
  C        13.0543069132        9.5995160170        0.2586523747
  C        18.8526125741       16.5241373710       -0.0053383360
  H        12.8560173969       13.1367501735       10.0887421270
  H        12.2081379587       12.6001423648       11.6701521959
  C        11.4033906385       14.5014873533       10.8276082450
  H        17.7371363888       12.4273252256       12.2724928346
  H        16.9261857001       12.2573808687       13.7680340925
  C        18.3606813201       13.8879205100       13.7606269836
  C        13.7647096867        8.0280219561       15.5130687236
  C        13.3260878745       10.2600602427       16.4256046640
  H        13.6242863904        8.7071555837        0.1074841650
  H        11.9949828164        9.3297116374        0.3889795167
  C        13.0753388935       10.4397271518       -1.0128731781
  H        18.8867364595       17.6239388447        0.0331961409
  C        19.1363145909       16.2183746454       -1.3098211680
  H        11.5711429963       15.2106033974       10.0690521115
  H        11.4670432142       15.0410756697       11.7204235941
  C        10.0416114075       13.8130269956       10.6280636403
  H        18.6725655448       14.6736362094       13.0094273873
  H        18.0908648931       14.4139829074       14.6450876260
  C        19.6594558265       13.0797863821       14.2822286005
  N        14.0168327116        6.9999332237       14.5799863206
  C        13.4999124996        7.3922703574       16.7380841924
  C        13.2205559142        9.6477922416       17.6818333295
  H        13.1794356260       11.3231468757       16.4105239807
  H        12.3856144709       11.2598618372       -0.9157089638
  H        12.6946665214        9.8895802928       -1.7676636745
  H        14.0899283748       10.8125441524       -1.2167339231
  S        19.4120316894       14.5910727704       -1.8911156509
  C        19.2480480164       17.2864760565       -2.3716782720
  H        10.0927013510       12.7989678763       11.1148219969
  H         9.3318435021       14.4443488398       11.1634170733
  C         9.4751912719       13.6550286116        9.2274702439
  H        19.9093176873       12.2740309635       13.5063648248
  H        19.4821181789       12.5022040922       15.1272588714
  C        20.9644322600       13.8211879913       14.5753563420
  S        13.9578088190        5.4826387562       15.2032893545
  N        13.5280062258        5.9476064789       16.7432440276
  C        13.2333267846        8.1627901158       17.8879959187
  H        13.0410171899       10.2668410080       18.5138029023
  C        19.8089922952       15.3184042929       -3.3938165674
  N        19.6619181931       16.6932462755       -3.4551662457
  O        19.0956054423       18.5303820166       -2.1579066193
  H         9.4278134058       14.6351462861        8.7874759725
  H        10.2621218373       13.1477564789        8.6377692102
  C         8.0668965453       13.0982397002        9.1115345140
  H        21.6834025721       12.9783762075       14.7293648811
  H        21.2695926416       14.4742974863       13.7586341147
  C        20.8461353567       14.7698340661       15.7818647485
  C        12.8507054031        7.4531335082       19.0867026760
  S        20.3927385925       14.3571758149       -4.7575701411
  C        19.9055540186       17.4566454672       -4.6772928934
  H         7.7781972200       13.0091131808        8.0628300033
  H         8.0999190540       12.0872051841        9.5752059043
  C         7.0382961837       13.9527137082        9.9574791189
  H        21.2370083709       14.3810056547       16.7034181779
  H        19.7666416682       14.7981820448       15.9926642329
  C        21.4378872470       16.1487171643       15.4821132115
  H        12.9108794840        6.3598455262       19.0757631996
  C        12.3418967625        7.9725015159       20.2735301879
  H        20.7132848189       17.0445114869       -5.3502156564
  H        20.2488271435       18.4958314309       -4.5906246204
  C        18.6087521482       17.3649930219       -5.4979897782
  H         7.4085353013       14.9791986746        9.9998932901
  H         7.0667796499       13.5353899103       10.9522436944
  C         5.5645520586       13.8971728757        9.4834287255
  H        22.0224308810       16.4385819097       16.3473559583
  H        22.1257258725       16.1941756509       14.6974500903
  C        20.2983297595       17.1320169035       15.2939724101
  S        11.8228385994        9.5438832481       20.6443562931
  C        12.0439912625        7.0150626574       21.3626703175
  H        18.6960326210       18.1084937546       -6.2192618902
  H        17.7097031816       17.4555328895       -4.9408889509
  H        18.5034892901       16.4265483523       -5.9739287249
  H         4.8920938302       14.5444387979       10.0804812485
  H         5.5592050166       14.1805660922        8.4438844322
  H         5.1995850772       12.8637978082        9.5561406199
  H        19.9380380273       16.9371068119       14.2892363086
  H        19.4523927664       16.9642279215       15.9262999128
  H        20.6800913985       18.1328096307       15.4033164361
  C        11.3583422154        8.9584433579       22.2395228958
  N        11.4924506709        7.6542572188       22.3965006044
  O        12.3774170362        5.8331841415       21.2481545034
  S        10.6260768826        9.9723756778       23.4957535918
  C        11.3926632153        6.9305537452       23.7245582913
  H        11.1295018714        5.9013584805       23.5192988293
  H        10.5647777522        7.2698816527       24.3397210179
  C        12.5851524408        7.0996751138       24.6132175286
  H        13.1873907023        6.2597491125       24.3502202861
  H        12.3487862835        6.9954102680       25.6507928621
  H        13.0919890150        7.9877656113       24.3856258174
