352
 i =    97400, time =    97400.000, E =        24.9472021569
  H        10.2838343916        5.1053072438       31.8860397234
  C        10.2521613324        6.0707225374       32.2412423463
  H         9.3930127217        6.2365530702       32.8560208901
  C        10.1686250034        7.1147100770       31.0197174638
  C        11.4874191502        6.2877508872       33.1580453680
  C        10.9469623791        6.5365484357       29.7874902969
  H         9.1120381033        7.2291462180       30.7428156597
  H        10.5566304763        8.0787655505       31.2847067795
  H        11.5523992519        7.3077146342       33.5943292416
  H        11.4024211786        5.5795328000       33.9424180127
  H        12.3665900951        6.0044439905       32.6148567972
  C        10.0183852368        5.8508643626       28.7829043701
  H        11.6138415300        5.7546927299       30.2142985588
  H        11.6678614585        7.1518293435       29.2838172153
  C        10.4924728787        5.8841779649       27.3710162373
  H        10.0671645623        4.8682117804       29.1555905583
  H         9.0385742293        6.3216501744       28.9574920503
  C         9.5633535413        5.1902197226       26.3567240238
  H        11.4235242909        5.3079003583       27.2038177161
  H        10.7198094388        6.8478371994       26.9771213229
  C         8.3696955045        6.0206169542       25.9441798058
  H         9.9823206586        4.9016450643       25.4814717400
  H         9.1858298489        4.3131545721       26.8789800557
  C         7.3186331407        5.1489322362       25.2395727728
  H         7.9294917267        6.4796117466       26.8037385265
  H         8.6877053311        6.8043395828       25.2772299299
  C         6.8995553728        3.8756657023       25.9550564248
  C         7.8682756732        4.4503333943       24.0483052263
  C         6.0421882295        5.9780492175       24.8232714821
  C         7.0812640462        2.7660315538       25.1615674185
  C         6.3987823361        3.5745710641       27.2229643445
  C         7.7182905934        3.0878452538       23.9693238599
  C         8.4243863848        5.0485514532       22.9600212985
  H         5.4725023669        5.3143489422       24.1063134536
  H         6.3158633243        6.8207882759       24.3259553938
  C         5.0150652368        6.2934740487       25.8714745569
  S         6.6917317775        1.3018328876       25.9758088668
  C         6.1935722147        2.1781980540       27.3929349517
  H         6.2695078232        4.3975838191       27.9165107819
  C         8.1224515834        2.4093536905       22.8347333828
  H         8.5306350977        6.1673423491       23.0837794042
  C         8.7493538817        4.4330696206       21.8196803330
  H         5.2915476894        6.2501151422       27.0046776448
  H         4.7945657652        7.3606058133       25.6776803380
  C         3.6572174861        5.5399042736       25.5799163521
  C         5.8641015898        1.5314082585       28.6822457666
  C         8.5909206292        3.1029439333       21.6507023748
  H         8.1769785375        1.3271598714       22.8040992764
  C         9.0962595018        4.8291554429       20.5512267448
  H         3.8877792886        4.4692418043       25.7206150222
  H         3.3522454276        5.7910689897       24.5560503653
  C         2.5402553179        6.0045344172       26.5275933593
  C         5.9539286810        0.1627953724       28.9546903283
  C         5.7019857143        2.3416079146       29.8701513040
  C         9.0478460305        2.4089995777       20.4691069812
  C         9.2421990387        3.7469862123       19.7343521537
  S         9.4415165556        6.2477235742       19.8323218542
  H         1.7059262277        6.1389802378       25.7986468044
  H         2.7867455426        6.9939677365       26.9627231109
  C         2.2793838585        4.9491892349       27.5629270509
  N         6.4376500043       -0.7857466096       27.9981706771
  C         5.7035777802       -0.3879856572       30.2112752257
  C         5.3285333558        1.8210974964       31.1372198293
  H         5.9073260621        3.3848113683       29.7963760937
  C         8.0012370564        1.5513970729       19.8832037542
  C        10.3822919491        1.7098849229       20.7310867721
  C         9.6483267133        4.1699647061       18.4336324536
  C         9.8378846961        5.5016357828       18.2916396778
  H         2.0892270401        3.9692801977       27.0909590186
  H         3.2061794440        4.7806564422       28.1652095966
  C         1.0756775821        5.1435499234       28.4447380138
  S         6.5193454770       -2.2312116143       28.6694067696
  N         5.8869248851       -1.8338588758       30.1699238675
  C         5.3336403438        0.3025755297       31.3620182070
  H         5.2480286838        2.5168480098       31.9653809721
  H         7.7502733801        0.7809680186       20.5837540850
  H         8.3785484256        1.0254080650       18.9905543929
  C         6.7072086574        2.3520573727       19.5066962317
  H        10.7079299771        1.2677527113       19.8506350938
  H        10.2161436127        0.8410551373       21.3834416390
  C        11.4361232148        2.6378825862       21.3085361277
  H         9.5733838172        3.4800161444       17.6282545781
  C        10.2314949460        6.2381383850       17.0660207503
  H         0.6437167960        4.2239442872       28.7104046367
  H         0.2809828044        5.6227634357       27.8256434119
  C         1.2039825606        5.9595411466       29.6782529199
  C         5.1167085581       -0.4059982175       32.6282065041
  H         6.9627735089        2.8890083333       18.6802249756
  H         6.2916989564        3.0570789471       20.2284606738
  C         5.6426553241        1.4500346345       19.0147326557
  H        11.2769500191        3.0317112420       22.3391222790
  H        11.5117479163        3.4947691272       20.7247213662
  C        12.8331140766        2.0227430926       21.2383086870
  C        10.4240403026        7.6096239505       17.0007034300
  C        10.4300826485        5.4363954927       15.8701291259
  H         2.1108404855        6.5513295333       29.5443800011
  H         0.3152893147        6.5947194431       29.8579401431
  C         1.5316338045        5.1194897337       30.8632877806
  H         4.8562164341       -1.4392299278       32.4667677343
  C         4.9159099510       -0.0865886364       33.9416662750
  H         5.1270251219        1.0438390270       19.9655308004
  H         6.1964906076        0.5963564017       18.4895676673
  C         4.5515696434        2.0626136716       18.1494398970
  H        12.6846890040        1.1905632573       21.8992542933
  H        13.1940092962        1.6635777895       20.3086899303
  C        13.9819888739        2.8619732077       21.8519041609
  N        10.1519310971        8.4575219019       18.0739271531
  C        10.7347808518        8.2621310397       15.8141504098
  C        10.9038646387        6.0269355416       14.7121933327
  H        10.1715152741        4.4441515272       15.9421715231
  H         0.6627301119        4.6419549018       31.3204478192
  H         2.3237290465        4.3975766354       30.7780025770
  H         1.9821187945        5.8004264980       31.6020003077
  S         4.6940307724        1.4945458547       34.4616251095
  C         4.8368087266       -1.1376396388       35.0426034394
  H         4.3731216544        3.0339006508       18.5380609220
  H         4.8144526544        2.1850935576       17.0840477694
  C         3.2841868827        1.1433741824       18.0767857345
  H        13.6523616566        3.2914820674       22.7313655943
  H        14.1882339181        3.7528565419       21.1085370167
  C        15.2499393867        2.0961714351       21.9231962647
  S        10.3090523489        9.9525322101       17.4887944875
  N        10.6887247996        9.6573979007       15.9256452826
  C        11.0187105777        7.5184219978       14.6042282601
  H        11.0328038847        5.4166411368       13.8209545920
  C         4.5425501994        0.8178986092       36.1190628349
  N         4.6112191723       -0.5285001911       36.1976832624
  O         4.9761201074       -2.3749650438       34.8868104464
  H         2.5483425530        1.7194380396       17.5988476160
  H         3.1295029542        0.9489579322       19.1394938220
  C         3.5109796512       -0.0875728920       17.2351679507
  H        15.0103112791        1.0951264339       22.0308180207
  H        15.8219382220        1.9959229431       20.9840504359
  C        16.0347293545        2.5074954506       23.1916620174
  C        11.3181296877        8.3332825705       13.4793580145
  S         4.1789352452        1.6373363674       37.5978367364
  C         4.6011599944       -1.3262411726       37.4550673099
  H         3.6653188238        0.1663472819       16.2356644938
  H         4.3286426570       -0.5382060381       17.7268760067
  C         2.2161031276       -0.9664147124       17.2764243486
  H        15.4198848801        2.3289692064       24.0841013669
  H        16.3118841564        3.5191493810       22.9546477014
  C        17.3722253085        1.8292843915       23.4805230780
  H        11.2674313358        9.3729011602       13.6172261407
  C        11.8983909383        8.0227363026       12.3233658378
  H         4.0576275175       -0.9338959190       38.2733922759
  H         4.2567093873       -2.3325726110       37.0999117987
  C         6.0096523557       -1.6597989763       37.8738944473
  H         2.3510684205       -1.6803227232       16.4616907858
  H         1.3932028323       -0.3525505665       17.1151683242
  C         2.1660352885       -1.7006527472       18.6027545456
  H        17.9304521609        2.5171371073       24.0853921874
  H        17.2305562513        0.8211378884       23.9556209621
  C        18.1567564912        1.6281778626       22.1488895213
  S        12.3277019136        6.5221449671       11.8311360158
  C        11.8691015225        9.0642066647       11.1892410445
  H         5.8505154995       -2.3865862748       38.6193502983
  H         6.3372269363       -2.2409299326       36.9934143857
  H         6.5477021876       -0.7357795551       38.1673310973
  H         2.0150817794       -1.0793774386       19.5309396169
  H         3.0693165790       -2.2297593138       18.6213139464
  H         1.3044283067       -2.3123122763       18.5574655543
  H        19.2170124695        1.3499722180       22.2508381403
  H        18.2540841687        2.5158413368       21.5211345641
  H        17.5823400668        0.8606533624       21.5647208507
  C        12.7474333882        7.2719770501       10.2463932843
  N        12.4703791167        8.6058628852       10.1173529874
  O        11.4566503446       10.2230653043       11.2968913567
  S        13.4214571988        6.3531910145        8.8863581507
  C        12.7665483393        9.3326636123        8.8675133747
  H        12.8239170989       10.4358768496        9.0924833881
  H        13.7319544446        8.9160057091        8.5608303684
  C        11.6351763030        9.0287609925        7.8656869996
  H        11.6654096608        9.8356919265        7.1323704266
  H        11.5329201717        8.0474259789        7.4246273949
  H        10.6777600006        9.2578471487        8.3679570626
  H        21.6818251950       11.4147029552        4.0581309512
  C        22.1544587170       10.4210786476        3.8615802970
  H        21.3700373602        9.6746761152        3.5697252385
  C        22.9606927264       10.1982301094        5.1804488155
  C        22.9821017990       10.5950672833        2.5835695138
  C        22.0963426571       10.2378960322        6.4480445166
  H        23.4334563280        9.1997949317        5.1821979130
  H        23.7161143654       10.9723375991        5.1802611034
  H        22.2852172463       10.7630792996        1.8077107032
  H        23.5253383309        9.6150155056        2.3272087695
  H        23.7364838776       11.4314895407        2.7340491031
  C        21.2657634643        9.0241265090        6.7589909003
  H        22.8194495629       10.4033949928        7.2398544941
  H        21.4799552629       11.0775835221        6.2958524023
  C        20.3639377681        9.0808619092        8.0218420789
  H        22.0073222052        8.1758125977        6.8390827587
  H        20.6915669126        8.7940765403        5.8814081542
  C        19.1875933427       10.0164932428        7.8252054720
  H        20.9140571947        9.3497154460        8.9249388727
  H        19.9323074984        8.1372478562        8.4006795350
  C        17.9419911174        9.3719547380        7.1674129809
  H        18.9836186227       10.5157775844        8.8149982653
  H        19.5447008896       10.7908692332        7.1034387417
  C        16.8256508097       10.4091104036        6.9249655413
  H        17.4685432886        8.4247482280        7.6289190417
  H        18.2944187950        9.0757697315        6.1923246773
  C        17.2639039249       11.7030774491        6.2184008113
  C        16.5415815902       11.1671608335        8.2353137446
  C        15.6306817455        9.6924991138        6.1970382411
  C        17.1345876827       12.8027414437        6.9774348645
  C        17.7466738520       12.0719586433        4.9738930494
  C        16.6956089670       12.4796136751        8.2924338032
  C        16.0457694949       10.5611175457        9.4006917877
  H        15.9467832026        9.2332539388        5.2607015584
  H        15.2030057764        8.8176618813        6.7207136181
  C        14.4013640923       10.6185406183        5.9673458868
  S        17.6560180490       14.2879407989        6.3289113343
  C        17.9336583249       13.4520779251        4.8480150518
  H        18.0528292496       11.3764330955        4.1925355060
  C        16.3580392010       13.1974226182        9.3851771496
  H        15.8386636995        9.5171074550        9.3370210707
  C        15.7026962613       11.3195256776       10.4898345528
  H        14.6917188638       11.6053939286        5.7100859658
  H        13.7554802495       10.7147706720        6.8678665846
  C        13.5547003274       10.1190108993        4.7856644687
  C        18.4083001651       14.2419933716        3.6346528495
  C        15.8177162790       12.6535645445       10.5579606267
  H        16.5609780417       14.2709446719        9.4295341601
  C        15.2930026212       11.0420983229       11.7977245618
  H        12.8395986992       10.8802645987        4.4910782990
  H        12.9145350910        9.3089490185        5.0355154664
  C        14.2360349781        9.8493010574        3.4700050510
  C        18.3688135596       15.6786216580        3.4840705410
  C        18.8413971067       13.5337876024        2.4536676291
  C        15.3766363611       13.4923659317       11.8196039596
  C        15.1350655898       12.1716942813       12.5689961201
  S        14.9271372890        9.6404263903       12.5744970828
  H        14.7959976376        9.0031276699        3.6095336605
  H        14.9482319269       10.6872267137        3.2776568947
  C        13.3402054765        9.5663045930        2.2547322886
  N        17.9595541947       16.5804464570        4.4757498566
  C        18.7012107212       16.3094280586        2.2784700637
  C        19.3153265388       14.1596943035        1.3006161576
  H        19.0298453210       12.4578791804        2.5004875860
  C        14.1140944015       14.2931226860       11.5373124381
  C        16.5333849459       14.2371229329       12.5173387353
  C        14.7333129868       11.8417740051       13.9068243290
  C        14.5947042543       10.4696057804       14.0988938161
  H        13.2127560472        8.5167847744        2.2680948297
  H        12.3365437087       10.0080941586        2.3324720316
  C        13.8531767458       10.1034930212        0.9180564167
  S        18.0843858979       18.0538853318        3.8710245982
  N        18.5979898271       17.7016156343        2.3765403926
  C        19.1767659471       15.6574317936        1.1326173441
  H        19.7603324970       13.5539812014        0.5200741820
  H        14.2853831577       15.2296542725       10.9552788995
  H        13.7485983865       14.6361718478       12.5354646974
  C        13.0340573259       13.4432880821       10.8673459901
  H        16.8540928313       15.0429852655       11.8574909620
  H        16.1428652860       14.6885969810       13.4682949627
  C        17.7448926196       13.4336379183       12.9173816701
  H        14.6214177521       12.6523157763       14.6097618882
  C        14.3127276295        9.7635453434       15.4000694462
  H        14.7006176028        9.4893451015        0.7581512878
  H        14.2180335811       11.1788085023        0.9459130082
  C        12.8141545864        9.9132927294       -0.2425909319
  C        19.2920607826       16.3967717887       -0.0740773027
  H        13.4146122916       13.0482967716        9.8745174728
  H        12.7739194174       12.5023708720       11.4339463578
  C        11.8769413185       14.3739379583       10.6215711234
  H        18.0258266304       12.9003472037       12.0124195573
  H        17.5212909634       12.6615577130       13.6495097918
  C        18.9692002894       14.2630173464       13.2749583568
  C        14.2415924579        8.3547364649       15.5733009039
  C        14.1026766021       10.5330771899       16.6674068632
  H        12.7855847728        8.9161744611       -0.5023541962
  H        11.7719255219       10.3007539811        0.0214743930
  C        13.0670548056       10.5067766257       -1.6545612100
  H        19.6947158455       17.3569564665        0.0800659004
  C        19.5177141483       16.0040494795       -1.4004401107
  H        12.1629466960       15.3090157866       10.0587662639
  H        11.3474591286       14.6349295581       11.5420002356
  C        10.9774414885       13.7235100474        9.6023355111
  H        19.1893249675       14.8752292037       12.3982272764
  H        18.7606581894       14.9577266803       14.0934139453
  C        20.1008623445       13.3979050977       13.7344734843
  N        14.4516351907        7.4197204312       14.5554360734
  C        13.8829540035        7.6942266557       16.7704521795
  C        13.8083171740        9.9361989346       17.8458684497
  H        14.1266406093       11.5577563672       16.5690232740
  H        13.1417357421       11.6132781648       -1.7183941613
  H        12.2439513074       10.1605885648       -2.2473002889
  H        13.9712467095       10.1067573716       -2.0341175408
  S        19.6390255952       14.4664419256       -2.0858562582
  C        19.6052909666       17.1472808723       -2.3478394342
  H        10.4856212911       14.5360102427        9.0867626520
  H        11.5344755475       13.3019010337        8.7903179637
  C        10.0537492661       12.7152095894       10.1742411919
  H        20.3590404702       12.7074462087       12.9211003216
  H        19.7411330549       12.8259698639       14.5272064439
  C        21.2944417572       14.1146204666       14.3238844033
  S        14.1291213940        5.8927923327       15.1827306842
  N        13.6838381717        6.3158808557       16.6795403714
  C        13.7049149224        8.4339369417       17.9625849779
  H        13.7958355911       10.5198679843       18.7847907571
  C        19.8929386408       15.2748867644       -3.5649774167
  N        19.9999362807       16.6480896084       -3.4968858571
  O        19.2840199516       18.2616238281       -2.0226776712
  H        10.1549979679       11.8250119605        9.5740267845
  H        10.4085113973       12.4164290618       11.1671247745
  C         8.6427796185       13.2260898472       10.3638722206
  H        21.0611393620       14.6375255660       15.2484708340
  H        22.0205363266       13.3335106052       14.4810293912
  C        21.8871850378       15.1718088502       13.4053665069
  C        13.4349747059        7.7897878980       19.1649596980
  S        20.2326528236       14.5109186388       -5.0556131860
  C        19.9428538921       17.3764010326       -4.7818297456
  H         8.0439376425       12.4396569848       10.7880553601
  H         8.5662843823       14.0341469044       10.9967692059
  C         7.9389370621       13.6233781248        9.0033658220
  H        21.7585161480       15.0385154711       12.3900406337
  H        22.9441743950       15.1820324186       13.5492878613
  C        21.4393217283       16.6396747680       13.6940151876
  H        13.8347864187        6.8168736695       19.1738788143
  C        12.7717637837        8.0534032668       20.3608855995
  H        20.6297956972       17.0410976676       -5.5399431120
  H        20.2933099370       18.2907873536       -4.5308523117
  C        18.5414538789       17.5048502721       -5.2217895866
  H         7.9672998132       12.7156360232        8.5201926263
  H         8.4111958806       14.3406005316        8.3045199049
  C         6.4303819864       13.9727162451        9.2078399836
  H        21.6067799144       17.1410031248       12.7476972653
  H        20.3560372102       16.6402954852       13.8210846775
  C        22.0767714845       17.3881149642       14.8366915020
  S        12.0298324899        9.5257871473       20.6951985194
  C        12.6740527900        7.0153935851       21.4603091369
  H        18.3054055519       18.6164261722       -5.2860266543
  H        17.8959143732       16.9255083774       -4.5619118399
  H        18.5292653020       17.1225854547       -6.2276221144
  H         5.8619370610       13.1608147248        9.5938347585
  H         6.4786279643       14.8167975686        9.9138669453
  H         5.9875164479       14.4055532250        8.3059751074
  H        21.8827568210       16.9379092476       15.8522708117
  H        23.1501356698       17.3149647660       14.7688553897
  H        21.7815801955       18.4657767153       14.8512271146
  C        11.6738823656        8.7745295814       22.2695737869
  N        11.9718496291        7.5073474391       22.4651457489
  O        13.0606432428        5.8641693563       21.3860639618
  S        10.7168212382        9.6108822463       23.4572211238
  C        11.5976539331        6.7148069091       23.6661910105
  H        11.5193834744        5.7078660118       23.2698312070
  H        10.5945555033        7.0632173007       23.9548502459
  C        12.6679760701        6.8664437632       24.7594359002
  H        12.2023805972        7.5779041716       25.4070599885
  H        13.6432602937        7.3446898661       24.4447367970
  H        13.0113167277        5.9609686842       25.2415515377
