352
 i =    31500, time =    31500.000, E =        25.0724520424
  H        12.6844085685        5.3420313898       32.7506197575
  C        11.7466383266        5.6431700774       32.4375827614
  H        11.1925229486        4.7282110849       32.1433471888
  C        11.9215009641        6.7093501872       31.3062353638
  C        10.7993294633        6.1030017060       33.6377253226
  C        11.8185592368        6.1524050172       29.9010654249
  H        11.0356879603        7.3710416651       31.3168086650
  H        12.8246702214        7.2851653101       31.4324650257
  H         9.9174249035        6.5190235882       33.2132464196
  H        10.5568458754        5.1547849909       34.1715984473
  H        11.2741801520        6.8442891480       34.2626054234
  C        10.5331249321        6.1205766807       29.1671034095
  H        12.1820902450        5.1891156482       29.8816650931
  H        12.5239738970        6.7935440420       29.3825150045
  C        10.7668858462        6.0020892490       27.6557596298
  H        10.0547316770        5.2270672974       29.5473145073
  H         9.9356368221        6.9973086517       29.5225853294
  C         9.5880588248        5.2386336813       26.9512040175
  H        11.7773586191        5.7076584342       27.3764497687
  H        10.7308260006        6.9603135825       27.1524169893
  C         8.4512085693        6.1029309818       26.4667953261
  H         9.9976919502        4.7321288386       26.1251861029
  H         9.2453658427        4.3783678973       27.5895965031
  C         7.3802809662        5.3101236840       25.6308019042
  H         8.0110682164        6.6228588879       27.2963963088
  H         8.8662254903        6.8643812433       25.7773806549
  C         6.9974219675        3.9624885787       26.3449787076
  C         7.8619312633        4.5550830583       24.4141276373
  C         6.1237876594        6.1835776938       25.3484655811
  C         7.2824736469        2.8518747808       25.5742857990
  C         6.3972540900        3.6139996138       27.5989528572
  C         7.7959800224        3.2077905835       24.3509094203
  C         8.4460673898        5.1709645525       23.3361634151
  H         6.3345707979        6.7468745374       24.5011019363
  H         5.9731139832        6.8505103602       26.1837083908
  C         4.7765065228        5.4308355236       24.8678549015
  S         6.7614552532        1.3281974267       26.3097987804
  C         6.2877470062        2.2568604442       27.7512210444
  H         6.0366593520        4.2936340280       28.2918273175
  C         8.0435303150        2.6072398413       23.1842300147
  H         8.7284011074        6.2253201145       23.4548625459
  C         8.7653534670        4.5671008550       22.1197573580
  H         5.0674992813        4.9556456252       23.9163166268
  H         4.5516514490        4.6774164135       25.6040199941
  C         3.5125323709        6.2964858461       24.8562662392
  C         5.8027246750        1.5591893665       28.9865581903
  C         8.5713852412        3.2738409662       21.9838692396
  H         7.8343143356        1.5048215327       23.1893496958
  C         9.1451667052        4.9962467547       20.8880689481
  H         2.6477516878        5.8433454528       24.3300830091
  H         3.7128349549        7.2621410738       24.4585210439
  C         2.8594972004        6.5121475474       26.2435982010
  C         5.8249023852        0.0934096925       29.1873802919
  C         5.4441581096        2.3491202460       30.1630348485
  C         8.9000894944        2.5695276208       20.6994972247
  C         9.1952779342        3.9366902288       19.9522999962
  S         9.6315644007        6.4543633457       20.1965626881
  H         2.0841979441        7.2301652269       26.2609433589
  H         3.5414031232        6.8591217485       27.0051439092
  C         2.1758751703        5.2587662304       26.8406186074
  N         6.1983014188       -0.8330103088       28.2351684205
  C         5.6265882623       -0.4376132157       30.4654338375
  C         5.2253969019        1.8267162192       31.4037070143
  H         5.3398883920        3.4284458466       29.9914357999
  C         7.6582497784        1.8142543679       19.9986377072
  C        10.2291691684        1.7627830895       20.6474398118
  C         9.4973530358        4.3427565655       18.6317406305
  C         9.8257082203        5.6398096542       18.6493543258
  H         1.3414288282        4.8085004164       26.2928670760
  H         2.8709858511        4.4462634538       26.8681695564
  C         1.5403475625        5.5588488606       28.1477330307
  S         6.1606517396       -2.3096795204       28.9904963391
  N         5.7866552910       -1.8390541374       30.5149943029
  C         5.3060759072        0.3459423113       31.6384978489
  H         5.1231006831        2.4739289344       32.2684625349
  H         7.3045877897        1.0117421807       20.6245743418
  H         7.9508637094        1.1827031008       19.1479864956
  C         6.4595193598        2.6391344334       19.5489920035
  H        10.4169773803        1.4968446379       19.6393160836
  H        10.0369097309        0.9070996902       21.2995520876
  C        11.4622016289        2.5034886421       21.1828949646
  H         9.4306996543        3.6561620799       17.8861829131
  C        10.1849527777        6.4538269740       17.4352345238
  H         1.1142214056        4.6344658348       28.4906444351
  H         0.7477273298        6.3381268780       27.9916220139
  C         2.4227565415        6.0165040844       29.3364145850
  C         5.1427490513       -0.3653757877       32.8908642499
  H         6.7589759208        3.4073739229       18.8270279806
  H         6.0796421177        3.1638811893       20.4629947199
  C         5.3233383658        1.8668925818       18.9675275378
  H        11.4518378012        2.4427016215       22.2758769018
  H        11.5573704535        3.5491301014       20.8842860921
  C        12.7714692954        1.7555447347       20.9554903925
  C        10.2111315116        7.8975319119       17.3145931063
  C        10.4406842856        5.6857692345       16.2467513402
  H         3.3284891363        5.4195224448       29.3558115548
  H         2.7603028736        7.0275579427       29.2006856262
  C         1.9185418584        5.8266458006       30.7156215484
  H         5.1565098811       -1.4727536841       32.7724337472
  C         4.7940178008        0.0638356267       34.1223059885
  H         4.8225965097        1.2730953389       19.6947672876
  H         5.7544536105        1.2879797592       18.1394786768
  C         4.3138566197        2.6996742355       18.2707992839
  H        12.8102029449        0.9607592831       21.7374611778
  H        12.5934947547        1.2634545026       20.0258562339
  C        14.0451834317        2.5788600555       20.9150772971
  N         9.9591229504        8.8284502946       18.3364700343
  C        10.5905690697        8.5379805621       16.1234749829
  C        10.7053451940        6.2949360631       14.9995915460
  H        10.3801031675        4.6116613265       16.3043241233
  H         1.4434909181        4.9104109478       30.9942398028
  H         2.7296554669        6.0600670966       31.3946721002
  H         1.1311317107        6.5894333952       30.8863769636
  S         4.3273543873        1.6511568506       34.5436477050
  C         4.9084223229       -0.8942899708       35.2337257115
  H         4.3833682719        3.7375418265       18.5822417855
  H         4.6296061500        2.7121569425       17.2032839782
  C         2.9093284911        2.1003377654       18.2002731634
  H        13.9983402301        3.2116874148       20.1007970229
  H        14.8842247642        1.8418397734       20.7667013673
  C        14.2571588867        3.3190256089       22.2669127412
  S        10.2943468137       10.3003596872       17.7784182622
  N        10.6079403284        9.9314101357       16.2870441193
  C        10.7806134842        7.8083385753       14.9009900416
  H        10.8771685475        5.7480385412       14.1950866870
  C         4.2649003192        1.0328950325       36.1677909976
  N         4.6152935264       -0.2628874003       36.3718726288
  O         5.2902831688       -2.0544860282       35.0989639490
  H         2.2874876504        2.8902567297       17.6594665325
  H         2.4984648248        1.8891594003       19.1576516997
  C         2.7876469245        0.7830583461       17.2402262678
  H        14.7129169006        4.2149250631       22.1280341400
  H        13.2824614536        3.4890177183       22.7339784441
  C        15.1267469755        2.5365259919       23.1868944675
  C        11.1665159351        8.5262954841       13.7288803034
  S         3.8984670888        2.0325699591       37.6314168279
  C         4.8002893450       -0.8978048922       37.7005658986
  H         1.7852260696        0.8670821170       16.7803135087
  H         3.6146290065        0.9681271241       16.5024430650
  C         2.9499246366       -0.5512869826       17.9580530755
  H        15.1329471588        1.4450893526       22.9330508749
  H        14.5227737047        2.5305111901       24.1839699232
  C        16.5726873366        3.0445440541       23.3071724408
  H        11.1402992697        9.5500309280       13.9406164678
  C        11.6092932271        8.1570650340       12.5254269289
  H         4.2249790082       -0.5028567169       38.4896178241
  H         4.3286338832       -1.9160712373       37.6196681581
  C         6.3265921449       -1.0033093011       38.0131742396
  H         3.9663201114       -0.6238952809       18.4877761444
  H         2.9929975716       -1.3337874985       17.1492323440
  C         1.8196214271       -0.7497918293       18.8876134730
  H        16.6507206442        4.0128854397       22.8001208960
  H        16.8281253576        3.2892810421       24.3622781729
  C        17.6449309293        2.0558352209       22.7158928822
  S        12.0076187189        6.5363355397       12.0404569921
  C        11.7466503813        9.1677338294       11.5087894281
  H         7.0271946462       -0.9918992450       37.1939286648
  H         6.6373243066       -0.2162651319       38.6820852296
  H         6.5183231044       -1.9522014672       38.4987609323
  H         1.6016281216       -1.8323795009       19.0605230582
  H         0.8951704166       -0.4237687339       18.3956852718
  H         1.8599392307       -0.1159906730       19.7958949067
  H        18.0710588804        2.5390522901       21.8605384646
  H        17.2510734806        1.0879550389       22.3507749528
  H        18.5187737594        1.9159372993       23.4431600770
  C        12.3447405421        7.2707079370       10.4672379197
  N        12.2610504528        8.6039111537       10.4014654590
  O        11.6465034286       10.3537577263       11.6725940004
  S        13.0623723495        6.4762543310        9.0742665503
  C        12.5645318283        9.5401485027        9.2855292567
  H        12.7467749353       10.5632282471        9.5721592149
  H        13.4286388209        9.2347407591        8.7408486793
  C        11.3804039414        9.5887903578        8.2759218887
  H        11.0620048124       10.5959754913        8.2479910280
  H        11.6700285137        9.3402888442        7.3468505610
  H        10.5184480641        9.0141048162        8.6056876275
  H        21.5390802257       11.3431522692        3.8981908413
  C        21.8801210244       10.2858497370        3.9751922377
  H        21.0257851897        9.5344046633        4.0957848285
  C        22.8026834672       10.1295265838        5.1621262141
  C        22.6417232500        9.8311932374        2.7307623676
  C        22.0331732834       10.3561192157        6.4744643661
  H        23.1538147394        9.0836376256        5.1522239886
  H        23.6473683923       10.8328250028        5.0646250068
  H        22.5489952923        8.7294751257        2.5576216067
  H        23.6885496839       10.0979988457        2.9516489468
  H        22.1498512651       10.3114053521        1.9081082131
  C        21.1301762000        9.1566672700        6.8166814363
  H        22.7146773936       10.5541439486        7.2545174437
  H        21.5047514856       11.2270214478        6.3113190478
  C        20.2742165908        9.3605144294        7.9931648142
  H        21.7295077335        8.2622942192        6.9531433680
  H        20.3366221583        8.9555515037        6.1125352184
  C        19.0554724862       10.3133154332        7.9153664726
  H        20.9107281579        9.5555713607        8.8486248865
  H        19.8498668431        8.4258409227        8.3632710882
  C        17.7879713029        9.6443497665        7.2810889861
  H        18.8248715021       10.8718184407        8.9039158947
  H        19.3295194616       10.9948119235        7.1596701504
  C        16.5701046701       10.5435092317        7.1007699107
  H        17.4359871106        8.8389448478        7.8599118850
  H        18.0791335838        9.2077377541        6.3146441878
  C        17.0018810734       11.9069572288        6.3996219327
  C        16.1473996349       11.3132974517        8.2618583669
  C        15.4452822805        9.7685719428        6.4544190754
  C        16.7210463518       13.0029482605        7.2160836778
  C        17.5143490239       12.3842268844        5.1331413170
  C        16.1779953583       12.6280138515        8.3618662833
  C        15.5868296164       10.7085183942        9.3715082170
  H        15.8988198044        9.3022824461        5.5754142092
  H        15.1352064572        8.8637624368        7.0815265447
  C        14.2730710848       10.6362114823        5.9989646598
  S        17.2397101064       14.5034222808        6.5189604216
  C        17.6743320061       13.7117632105        5.0550944194
  H        17.7482531940       11.5805198290        4.5020815455
  C        15.8010541672       13.3019839954        9.4829440110
  H        15.5408213562        9.6621413415        9.2846068808
  C        15.3988374856       11.3232709843       10.5706102406
  H        14.5836082465       11.5951952964        5.6938729159
  H        13.6694563611       10.7304478062        6.8888108945
  C        13.2933179513       10.0544816411        4.9687127551
  C        17.9669382524       14.4274660442        3.6878554722
  C        15.3273829607       12.6687654804       10.6336483822
  H        15.8685537038       14.3741637696        9.4656329888
  C        15.0854829871       10.8844817005       11.8575330034
  H        12.2521913681       10.4493428154        5.1100528614
  H        13.1604784735        9.0044681448        5.1962618457
  C        13.6655925516       10.3045647407        3.5767414347
  C        17.9930692437       15.7804219515        3.3921498041
  C        18.4261708493       13.5724464843        2.5670267773
  C        15.0672871813       13.2985986905       11.9146708030
  C        14.9006205461       11.9907985044       12.7260659410
  S        14.6950428851        9.3718759736       12.6930573990
  H        14.7361916262       10.1336463878        3.4379177539
  H        13.5105257676       11.3573722667        3.2670953045
  C        12.9346481739        9.3253141591        2.6071628927
  N        17.6608644608       16.7276521721        4.4304847865
  C        18.3605103719       16.3745274570        2.1855479632
  C        18.6967067624       14.1982852693        1.3792396277
  H        18.5715165909       12.5475335923        2.7246273677
  C        13.7893738318       14.2266927012       11.8899145227
  C        16.3328824162       14.0984747492       12.3102507812
  C        14.6373936267       11.5781157369       14.0787084089
  C        14.4839309525       10.2116235149       14.1202438157
  H        13.4629520587        8.3452161915        2.6381149996
  H        11.9769168448        9.1849837158        2.8298651972
  C        13.0163973990        9.8678275374        1.2156586815
  S        17.7547296472       18.1911335303        3.7429563077
  N        18.2967426965       17.8146835881        2.2671391348
  C        18.7885761457       15.6279009091        1.0531789727
  H        18.9373369295       13.4254520876        0.6410207004
  H        13.9911446833       15.0061084956       11.2633635246
  H        13.6207075732       14.7344414299       12.8468235455
  C        12.4840704792       13.4974081647       11.5159013780
  H        16.7478449501       14.7331015772       11.5598346396
  H        16.0271845469       14.8707009238       12.9081490033
  C        17.3464377384       13.2860903277       13.0911754492
  H        14.5305162544       12.3507806210       14.8445446485
  C        14.1318709673        9.5243277009       15.4270972061
  H        14.0200244077       10.3305783460        0.9677019145
  H        12.2616954535       10.6516939857        1.0818882096
  C        12.8993803090        8.8230215723        0.1403794546
  C        18.9012471849       16.2483772876       -0.1887823166
  H        12.7549844538       13.0203368125       10.5516752556
  H        12.1523570862       12.7571973178       12.3226160833
  C        11.2602548967       14.3722096524       11.3267609133
  H        17.5594142396       12.4005944446       12.5051493128
  H        17.0682968443       12.9949238500       14.1005869818
  C        18.5795134073       14.1895498984       13.0870899360
  C        14.0570276778        8.0956769045       15.6440987757
  C        13.6186035322       10.3377153276       16.5380014012
  H        13.8848391312        8.3713331507        0.1422103345
  H        12.1583665731        8.0213433314        0.4412445111
  C        12.5713443599        9.2920066285       -1.2547988013
  H        18.6288861304       17.2530504336       -0.1011418849
  C        19.1812029960       15.7329379313       -1.4675765345
  H        11.4278819852       14.9582649798       10.3863002898
  H        11.3490790457       15.0352192177       12.2039678988
  C         9.9835997069       13.6129366706       11.2811022192
  H        19.0936869204       14.2821130101       12.0937541293
  H        18.4306373935       15.1486632814       13.5623166291
  C        19.6073901512       13.6168667954       13.9715670650
  N        14.3497958348        7.2275424065       14.6523695888
  C        13.7638488142        7.5509866017       16.8679517018
  C        13.5214893989        9.7734462090       17.7981954918
  H        13.5809224065       11.4291528160       16.4599036202
  H        12.7060052091        8.5049768220       -2.0267940115
  H        13.1546120658       10.2239769185       -1.5518489792
  H        11.5455084613        9.4709727402       -1.3901159931
  S        19.5075999254       14.1184669023       -1.8428523844
  C        19.3241567311       16.7182031056       -2.5301954141
  H        10.2939616626       12.5932768264       11.1067863623
  H         9.4144054953       13.5604529107       12.2478358061
  C         9.1083838853       14.1813083290       10.2247201819
  H        19.9027733588       12.6439150762       13.5351309073
  H        19.1332530347       13.4628368808       14.9898819156
  C        20.8290618457       14.5806865647       14.0348060136
  S        14.2330557248        5.7306605845       15.2701876697
  N        13.6572147479        6.1644808454       16.7626955628
  C        13.4496496687        8.3143921956       17.9851758893
  H        13.4040328592       10.5138107786       18.5914910198
  C        19.6995833369       14.7274141114       -3.5678523474
  N        19.6359954598       16.0864503324       -3.6722135994
  O        19.0782048874       17.8958313192       -2.4043487973
  H         8.4046947366       14.8517872309       10.6843050433
  H         9.6065976031       14.8831053993        9.4937344630
  C         8.2669360193       13.1469058038        9.5267982930
  H        21.6035187840       13.9138169401       14.4777651467
  H        21.3136656750       14.7224277728       13.0893450549
  C        20.6793070387       15.9004272104       14.8270284474
  C        13.2106540196        7.6251174086       19.2282235482
  S        19.9590488370       13.6145354226       -4.8871137171
  C        19.6064589871       16.7341497645       -4.9321466394
  H         8.7451610727       12.8854958349        8.6137746114
  H         8.2386524266       12.2016343611       10.1307772493
  C         6.8193881535       13.4765103863        9.1533056342
  H        21.0658954749       15.7077911393       15.7473139564
  H        19.6120095369       16.2186575206       14.9273978240
  C        21.3515138852       17.1060103096       14.1610175947
  H        13.4553209369        6.5687056244       19.2823840101
  C        12.7502791082        8.0911224363       20.4398550583
  H        20.4290194717       16.3374802159       -5.4807779856
  H        19.9602053749       17.7840062223       -5.0973547655
  C        18.2431281624       16.6862196151       -5.5125857340
  H         6.4836998987       12.7911916881        8.3629616219
  H         6.7430280297       14.3944555840        8.5775391960
  C         5.8190190794       13.2695068345       10.2992055219
  H        21.4168529725       16.9853461342       13.0345428567
  H        20.7471040176       17.9724015507       14.2539288606
  C        22.7534976925       17.3477880441       14.7978170925
  S        12.3589822824        9.7096699012       20.8187952308
  C        12.6237966093        7.1307106462       21.5744121514
  H        18.2311463759       16.7348655653       -6.5954372537
  H        17.5907425464       17.5310889145       -5.0604586708
  H        17.7307054510       15.7712016842       -5.2477303691
  H         6.0554763398       13.9862705433       10.9784346836
  H         4.7036634710       13.2833442618       10.1097012451
  H         5.9045172655       12.2813927333       10.7518116643
  H        23.3937006466       16.8895032442       14.1134719862
  H        22.9691159755       18.4205347862       14.9722516032
  H        22.9825534620       16.8344900220       15.7592020890
  C        11.8240148874        9.0037644871       22.3628850672
  N        11.9902895258        7.6622029717       22.5973596408
  O        12.8751296530        5.9497363025       21.5152191002
  S        11.1809703048        9.8839563233       23.6732553278
  C        11.7989437891        7.0028551753       23.8900049879
  H        11.1814792651        6.1298616606       23.6280287047
  H        11.1432556523        7.4640576951       24.6100127230
  C        13.1904817264        6.7606277485       24.4937311713
  H        14.0085385576        6.3250629989       23.8969161981
  H        13.0584544567        6.0183363170       25.2725830334
  H        13.6259033228        7.6385096318       25.0407144823
