352
 i =    68500, time =    68500.000, E =        25.2863344689
  H        12.2220049207        5.0350376380       31.7499145404
  C        11.4586151447        5.7756509578       31.8026872548
  H        10.5439365860        5.2470990463       31.7205834887
  C        11.7548787369        6.6702366091       30.6178797548
  C        11.5927416054        6.5331782164       33.1717427005
  C        12.3930069426        6.0037295447       29.3864828377
  H        10.8846858950        7.3076729426       30.4450659577
  H        12.5411685183        7.3486195321       31.0073554157
  H        11.5258258080        5.7387889390       33.8899915048
  H        12.4830432825        7.1317751687       33.2204096546
  H        10.7851409671        7.2961298514       33.3339073200
  C        11.4489312721        5.1561688735       28.4978870407
  H        13.3109831689        5.4616802524       29.6262936584
  H        12.9088632475        6.7901189740       28.7262838790
  C        10.3668967222        5.9567103340       27.7808683530
  H        12.0980868134        4.8332757639       27.6534793959
  H        11.1475618281        4.2164110107       28.9674663698
  C         9.7274978776        5.2159856352       26.7265915624
  H        10.8070140961        6.8375100667       27.2581990398
  H         9.6466048414        6.3163832567       28.4471727985
  C         8.4320194005        5.8763247202       26.2426425510
  H        10.4187816976        5.0785637524       25.9059640872
  H         9.4856457109        4.2755400703       27.0798236443
  C         7.4000280557        5.0235994500       25.5511277582
  H         7.9578215563        6.3042966854       27.1863463715
  H         8.7612386055        6.6528357133       25.6064572897
  C         7.1667004668        3.6456074278       26.2718556847
  C         7.9671751983        4.3593890622       24.3539096663
  C         6.1127771578        5.5759525101       25.1957068589
  C         7.5358892856        2.5784382655       25.4316043853
  C         6.6627910645        3.2302345342       27.5062779758
  C         8.0779112007        3.0346062751       24.2018711775
  C         8.4524522481        5.0772967833       23.2493316670
  H         5.7189054953        4.9852499116       24.4305142944
  H         6.2814884512        6.4881966833       24.6220030966
  C         5.0894741317        5.8439256948       26.2926445585
  S         6.9570675480        1.0773766558       26.1003579855
  C         6.5070692394        1.8844566768       27.6124628377
  H         6.4121982692        3.9439302181       28.2474895679
  C         8.4556439334        2.4812862521       23.0395599697
  H         8.4048091772        6.1325943853       23.2546002782
  C         8.9338374596        4.5105079038       22.1289579269
  H         5.0230466700        4.8432171732       26.7096465566
  H         5.3399715759        6.4640466294       27.2046676633
  C         3.7662291836        6.1795782149       25.6666979885
  C         6.0370290968        1.2110187135       28.9272773916
  C         8.8856447226        3.2031328490       21.9583191806
  H         8.4765467043        1.3649965365       22.8783410125
  C         9.3051035302        4.9184338072       20.9037248001
  H         3.6114866087        5.4883014977       24.9035679226
  H         3.8648931213        7.0549850904       25.1712865452
  C         2.6370445984        6.3159378862       26.6810869684
  C         6.1083542927       -0.1908599015       29.2240460668
  C         5.6971737030        2.0328441018       30.0645102896
  C         9.3639633469        2.4807975744       20.6944864725
  C         9.6620711329        3.8586309821       20.0879947513
  S         9.4300002307        6.4499258209       20.0865764867
  H         1.6923692505        6.8764323670       26.4165884744
  H         3.1030309947        6.9307189742       27.3684161393
  C         2.1191886268        4.9961697698       27.2085973666
  N         6.4005251281       -1.1987306084       28.2958372765
  C         5.8215517109       -0.6728182049       30.4585952715
  C         5.5716976879        1.5075769547       31.3245449791
  H         5.6943089114        3.1197457829       29.9043197876
  C         8.1580646158        1.7737485407       20.0566674086
  C        10.6126095211        1.4671801229       20.9174749174
  C         9.9786327890        4.2804639774       18.8242455210
  C         9.8630178467        5.6631879172       18.6231032754
  H         1.1189837233        4.7976574596       26.7254420567
  H         2.6983112236        4.0950375828       26.8393414891
  C         2.1318089358        4.9560445876       28.7312562477
  S         6.5754030295       -2.5845615294       29.0479347554
  N         6.0195292500       -2.0408283862       30.4728370410
  C         5.4306469276        0.0878890090       31.5610447206
  H         5.3733576774        2.2187076451       32.1404742709
  H         7.5375092054        1.4455950374       20.9023456774
  H         8.3731046429        0.9042733286       19.4528161069
  C         7.2293551227        2.7343617476       19.2162351100
  H        10.8311365914        0.6361587635       20.1952179859
  H        10.4824691414        0.9993386453       21.8661290186
  C        11.9529987920        2.1645028296       21.0899393194
  H        10.0923721868        3.5352043607       17.9955694169
  C        10.2493763577        6.3842215617       17.3463537971
  H         1.7104664836        3.9357875115       28.8436206026
  H         1.4939119954        5.7059937070       29.1953785665
  C         3.5451494237        5.1043957039       29.4199829691
  C         5.2986582725       -0.5509659382       32.8189222181
  H         7.6221238222        3.0621328188       18.2414550108
  H         7.2460801589        3.6873107383       19.6888808345
  C         5.8943875510        2.0679463114       19.0730378864
  H        11.7468140889        2.9666136205       21.7944294297
  H        12.4172400400        2.6896695727       20.2899923186
  C        13.0643041904        1.1815929144       21.6122139839
  C        10.4897469391        7.7231213839       17.1127444403
  C        10.3587117443        5.5203308794       16.0983816282
  H         4.2693468032        4.5741693596       28.9045101649
  H         3.9513218405        6.1626339026       29.4380785287
  C         3.2788947432        4.8739567034       30.9098714131
  H         5.3037765073       -1.6683839837       32.7757550811
  C         5.1237263918       -0.0103728853       34.0802668626
  H         5.0864997089        2.8410475794       19.0789889862
  H         5.5817412634        1.2469035679       19.7848597210
  C         5.7926684065        1.2717893952       17.7295672475
  H        12.7080188133        0.6303500675       22.4206093010
  H        13.3048564575        0.4401302014       20.8858394759
  C        14.3642689632        1.9261666311       21.8735371968
  N        10.3069750915        8.7414345246       18.0847353215
  C        10.8472006791        8.2733418029       15.9078493780
  C        10.7791291982        6.0272667189       14.8360467237
  H        10.2436246649        4.4248127195       16.1209675742
  H         3.4934409366        5.7335119498       31.4179055120
  H         2.2184196464        4.6103240348       31.0477179701
  H         3.8515405510        4.0197614490       31.2529658328
  S         4.8103592561        1.5964990528       34.5775874340
  C         5.1783720150       -0.9766119503       35.2125770767
  H         6.2251126772        1.9018546853       16.9389087241
  H         6.4439687279        0.3951922862       17.6644709198
  C         4.3576243658        0.7434789369       17.3023805726
  H        14.1614794668        2.9299575176       22.2717670762
  H        14.8355646406        2.0542673564       20.8997128403
  C        15.4593697217        1.2163424864       22.7343793235
  S        10.3353900602       10.2276772399       17.3477840849
  N        10.8374977397        9.6879736491       15.9381166534
  C        11.0534651141        7.5356257664       14.7118014202
  H        10.9385227984        5.2270051075       14.0106986531
  C         4.7537340854        0.9508331623       36.2467107104
  N         4.9692699734       -0.4043329111       36.3582315376
  O         5.4004352789       -2.1511469549       35.0667631979
  H         4.3593909039        0.3572621473       16.2780190685
  H         3.7325952118        1.6270809204       17.2865072632
  C         3.7283119978       -0.4186753953       18.0433685540
  H        14.9824450462        0.5989454837       23.5723591076
  H        15.9629224387        0.5326130297       22.0952732554
  C        16.3714249157        2.2689933585       23.4126442616
  C        11.4000627436        8.2567733131       13.5858426162
  S         4.3808218109        1.8750215621       37.6673632701
  C         5.1259649047       -1.0724442340       37.6061160646
  H         4.3062868718       -0.7423321394       18.9380696023
  H         2.8072394499       -0.0799147318       18.4578908863
  C         3.5159568661       -1.6882839978       17.2552138421
  H        15.9043506965        2.8882452784       24.1399131081
  H        16.8108344785        2.9759253470       22.6869048369
  C        17.6282830073        1.6414617507       24.0285464652
  H        11.2091871638        9.2880320436       13.5603672692
  C        11.9388155211        7.8835713687       12.3645540684
  H         4.4759900705       -0.6190014227       38.4151688004
  H         4.6639093450       -2.0214333198       37.5014881940
  C         6.6128155143       -1.1422059629       37.9932226120
  H         3.7972422856       -2.4641736837       17.8815621018
  H         4.1332706865       -1.6510262743       16.3871423792
  C         2.0795018833       -2.0505296862       16.8732927953
  H        18.0109237981        2.2783563179       24.7603961569
  H        17.4652943816        0.6908173215       24.6132198565
  C        18.8051831781        1.4494278138       23.1383226924
  S        12.5735231650        6.3090925007       11.9954919147
  C        12.0347760356        8.9173947777       11.3022380925
  H         6.8042138966       -1.8808856968       38.7837564748
  H         7.2952365965       -1.4250028499       37.1747545809
  H         6.8713777744       -0.1770595606       38.4493268377
  H         1.6091863183       -1.5169686602       16.0436554533
  H         1.4967756609       -1.7239572116       17.7342019347
  H         2.0279507440       -3.1179459571       16.6447962801
  H        19.3034602094        2.3747345161       22.8878261966
  H        18.4423301081        1.0485152664       22.1734797735
  H        19.6019455645        0.8312821731       23.5428597650
  C        12.7549936964        6.9718503420       10.3710602108
  N        12.5883611855        8.3288544414       10.2240792754
  O        11.5970208460       10.0857005949       11.3327269191
  S        13.6522066667        6.2231574511        9.0700785126
  C        12.6448094143        9.0992432952        8.9614285332
  H        12.7243895812       10.1742126978        9.1914934734
  H        13.5757179430        8.8993613173        8.3683334308
  C        11.3730689344        8.8756790437        8.2263983857
  H        11.2590826937        7.9270791025        7.6349460537
  H        10.5191107578        8.8604843179        8.8501848254
  H        11.0620562343        9.6161527738        7.5875380559
  H        21.9683089337        9.1376965213        3.6447320578
  C        22.0638501426       10.2743297075        3.6587348228
  H        22.7683242469       10.5120327179        2.9166426002
  C        22.6077608647       10.8499768844        4.9759190304
  C        20.6998366555       10.8497534804        3.1758782364
  C        21.7175872132       10.8158390510        6.2145174376
  H        23.5342656981       10.2789530922        5.2047473079
  H        23.0298935906       11.8137531371        4.7700255683
  H        20.6648756956       11.9357484557        3.2289138278
  H        19.9293511405       10.3858674436        3.6359693472
  H        20.4541575170       10.7565776470        2.1085646909
  C        20.9162379765        9.4812684912        6.5542783808
  H        22.4353713299       10.9903680191        7.0560964742
  H        21.0715603206       11.5993349210        6.1223304945
  C        20.4515640872        9.4603697561        7.9996540395
  H        21.5556696431        8.6486094081        6.3908902581
  H        20.0427355915        9.4037807032        5.8962938763
  C        19.2229088932       10.3342178469        8.1470486685
  H        21.2411138888        9.8626923493        8.6701044200
  H        20.2690538390        8.4168408720        8.2349059676
  C        17.9115376119        9.6776146308        7.6623500867
  H        18.9912840756       10.4932764413        9.1939387988
  H        19.4302183774       11.3294219611        7.8066846218
  C        16.7538608428       10.6095062857        7.2395204175
  H        17.6925943451        8.7903265908        8.3934605784
  H        18.0753727497        9.2032308556        6.7328934547
  C        17.1663485499       11.9255214204        6.5006797868
  C        16.3639444021       11.3273839607        8.4312644122
  C        15.6222639774        9.8504200098        6.4937467639
  C        16.9164780700       13.0475118388        7.3432050961
  C        17.6620196503       12.3318494330        5.2748028182
  C        16.4304299661       12.6853774190        8.5522655102
  C        15.9847995445       10.6140369070        9.5948334639
  H        16.0003768967        9.3373769708        5.6191657303
  H        15.3477480110        9.0233524329        7.1734402213
  C        14.3407914097       10.7293235444        6.2232636046
  S        17.3413260352       14.5614847273        6.5587592839
  C        17.7691100245       13.7062904352        5.1334065469
  H        17.9117336264       11.6027873638        4.5792196918
  C        16.1108631095       13.2893144206        9.7478609982
  H        15.7874216562        9.5363380625        9.5285260099
  C        15.6383847209       11.2450424770       10.7658942493
  H        14.6263651621       11.5926049242        5.6795619291
  H        13.8606345062       11.0936040834        7.1852499555
  C        13.3170372384        9.9162017160        5.3476416679
  C        18.2210331343       14.3412437021        3.8258824197
  C        15.7732795015       12.6220215387       10.9297824995
  H        16.2202034630       14.3735769721        9.7262312498
  C        15.2373897838       10.8346417786       12.0446039385
  H        12.4503845829       10.5435198282        5.4854095185
  H        13.0300731486        9.0175371839        5.9275873833
  C        13.8859175618        9.7178402813        3.9413615233
  C        18.2502070395       15.7070088377        3.5149230520
  C        18.4693343853       13.4025984961        2.6565915951
  C        15.2730196716       13.2923284678       12.1956316760
  C        15.0863751022       11.9371057709       12.9156560692
  S        15.0584294679        9.3362295983       12.8319299186
  H        14.3095323980        8.6392846894        3.9460016241
  H        14.7094935215       10.3870392346        3.6922064765
  C        12.8345458805        9.8059896772        2.8322411073
  N        17.9982899108       16.7352778059        4.4142633198
  C        18.5672057545       16.1811489563        2.2674242273
  C        18.8309461380       13.9167445947        1.3835332864
  H        18.4931893701       12.2963403289        2.6199891464
  C        13.9303792678       13.9867775833       12.0242529490
  C        16.3175647033       14.2125979176       12.9032971429
  C        14.7771760442       11.4685607776       14.2147003374
  C        14.7904098237       10.1380055433       14.3183420081
  H        11.8773238485        9.3948792847        3.0250025004
  H        12.5744359847       10.8504671438        2.6925765938
  C        13.4845447384        9.2922221788        1.4893547204
  S        18.2143933955       18.2026172362        3.7178023412
  N        18.4632626701       17.6214933554        2.2105747438
  C        18.8771911500       15.3943651836        1.1568072150
  H        19.0918125468       13.1850979110        0.5704120028
  H        14.0808158595       14.8496797342       11.4046722435
  H        13.5674836085       14.2883386463       13.0418673989
  C        12.8155609799       13.1460205019       11.5998891733
  H        16.5487479719       15.1266319258       12.3237123930
  H        15.9438278416       14.6658725658       13.8319780307
  C        17.5863105692       13.3955345816       13.1316348594
  H        14.6023697669       12.1160518632       15.0469201642
  C        14.4581255722        9.4020491006       15.5869457642
  H        13.0744921269        8.2952383148        1.2415593962
  H        14.5766831493        9.1650919273        1.5533798875
  C        13.3100808892       10.1103418611        0.2522864832
  C        19.3155506687       16.0767487851       -0.0484104289
  H        13.1825746274       12.5922260705       10.8039319961
  H        12.5159738266       12.4293174373       12.3643201220
  C        11.6145572289       14.0523888694       11.4071720691
  H        18.0715227008       13.0866998605       12.2178753599
  H        17.3968657317       12.5103536865       13.6984104994
  C        18.5186867830       14.2067518938       14.0178715123
  C        14.3992856825        7.9799216941       15.7115408999
  C        14.2217331199       10.1134043611       16.8751024345
  H        13.2589848451       11.1795435752        0.5256864933
  H        14.2550569171       10.1568824147       -0.2885326029
  C        12.1361535653        9.7889679544       -0.6257981049
  H        19.1683105133       17.1286998960       -0.0552966968
  C        19.4223708839       15.6650250511       -1.3786155407
  H        11.9186262009       14.8225677550       10.7261072070
  H        11.2258225531       14.5577252142       12.3263129741
  C        10.4511502730       13.2034081097       10.7537361109
  H        18.6728426067       15.1465709441       13.5057368567
  H        18.1258742684       14.3373181693       15.0146099375
  C        19.8739714818       13.5557780829       14.2768780207
  N        14.5754816418        7.1180292774       14.6821961029
  C        14.0717487618        7.3183731216       16.8744361033
  C        13.9726187447        9.4820172868       18.0508776807
  H        14.4011916490       11.1718213868       16.9037148513
  H        12.2754189180        8.7492994847       -0.8743173346
  H        12.1293861978       10.4089045434       -1.5703681949
  H        11.2191889755        9.8555703505        0.0095416065
  S        19.7349422236       14.1606656048       -2.1284874606
  C        19.2002868803       16.7772464955       -2.3827184638
  H        10.8099564702       12.2063837690       10.5050789482
  H         9.7792936081       12.9275525457       11.5303851131
  C         9.6753511828       13.8646919126        9.6177503630
  H        20.2957163273       13.0150899495       13.4137340646
  H        19.8444036511       12.8137886893       15.0789669687
  C        21.0271079062       14.4927990859       14.7635802291
  S        14.4302873587        5.5602138531       15.2584716602
  N        14.0804237433        5.9003058417       16.7990904137
  C        13.7774201646        8.0053450100       18.0626749932
  H        13.7910084160       10.0585313131       18.8925339162
  C        19.7959874629       14.9762413674       -3.6902625628
  N        19.4811217782       16.2852501162       -3.6657646154
  O        19.0686729181       18.0128631756       -2.1310576382
  H         9.0083836713       14.7260863108        9.9909274926
  H        10.5018288192       14.2435167898        8.9925624184
  C         8.8601598192       12.8355769107        8.8008386347
  H        20.5924488735       15.0209720933       15.6793212879
  H        21.8566576090       13.8550032778       15.1307404282
  C        21.6353308941       15.4615111724       13.7111128898
  C        13.2510825761        7.1759204402       19.1603872596
  S        20.3949918717       14.3030578617       -5.2489466167
  C        19.3474555438       17.1425751281       -4.8236414841
  H         9.3995680750       12.3741495802        8.0371785296
  H         8.6044820813       11.9051425100        9.4251876664
  C         7.5968617625       13.5025414493        8.3519533751
  H        20.9369913727       15.8153802717       12.9421693780
  H        22.4012566625       15.0483496923       13.1186867153
  C        22.2558683570       16.6731690609       14.3920733076
  H        13.3779549333        6.1070770110       18.9529279674
  C        12.7649828188        7.4981797964       20.3733487318
  H        19.9541054825       16.8185140145       -5.6455096146
  H        19.7450203115       18.1721856410       -4.8704211518
  C        17.8551243638       17.2793889463       -5.3217921282
  H         7.2654714324       12.9317653615        7.5341218264
  H         7.8253971055       14.5261117511        8.0370405979
  C         6.5080875028       13.6794136845        9.3953716888
  H        23.0271473054       16.1588123739       14.9217574117
  H        22.6508915906       17.2198786536       13.5805222762
  C        21.2903173507       17.5032234252       15.2831209778
  S        12.4023571860        8.9708114213       20.9504123383
  C        12.4957253958        6.3841455845       21.3331264310
  H        17.2796662077       16.3443810961       -5.2163997771
  H        17.8839988877       17.6140655037       -6.3783344825
  H        17.3468542984       18.0040801117       -4.7772030601
  H         6.1777319728       12.7309880922        9.7905724609
  H         6.6171147323       14.4726361519       10.1427493003
  H         5.5629487739       13.9087977515        8.9279101597
  H        21.1471360334       16.9791540331       16.2445343983
  H        21.6868076272       18.4168132316       15.5856357688
  H        20.3631287286       17.7556840366       14.7881523055
  C        11.9012529357        8.2114391531       22.4878888226
  N        12.0196319460        6.9048818004       22.4644326925
  O        12.5202610201        5.1792671948       20.9931076793
  S        11.3324037477        9.1409885305       23.9008511505
  C        11.7153973110        6.1518211301       23.6492032488
  H        11.4435882441        5.1486691824       23.3668900068
  H        10.7630254110        6.4773375726       24.0954854241
  C        12.8025918233        6.1602536865       24.6753586832
  H        13.6288677784        6.8398635141       24.3900506708
  H        13.2474164700        5.1800702925       24.7741078117
  H        12.4138581384        6.5434438842       25.5984221741
