352
 i =    17500, time =    17500.000, E =        24.9298735766
  H        12.4532285018        6.7733015486       32.8129995273
  C        11.7232072215        5.9973228388       32.5867108384
  H        12.3881728505        5.2711486697       32.1828240603
  C        10.8186744517        6.6084464972       31.5542912566
  C        11.0956688444        5.5134942634       33.9429611519
  C        11.2993663884        6.5782296893       30.0490671672
  H         9.8907915788        6.0497050022       31.5544168978
  H        10.5842739338        7.6183338331       31.9526592148
  H        10.6051295058        6.3258680713       34.4444759384
  H        10.2644437908        4.7791284854       33.8307061397
  H        11.8703535764        5.1662311588       34.6732770918
  C        10.1677511739        6.4134417013       29.0110240606
  H        12.1240894611        5.9287229366       29.8329028917
  H        11.7775670023        7.5699044356       29.8354868513
  C        10.7546190427        6.1962898031       27.5484697773
  H         9.4710513390        5.5615871761       29.2178247689
  H         9.4777888538        7.2431450340       29.0450249520
  C         9.8155111719        5.3535403875       26.6190708337
  H        11.6916531586        5.6544603069       27.6272914890
  H        11.0113071722        7.1600857180       27.0552718828
  C         8.5394231833        6.1239486173       26.1619895469
  H        10.3819541947        4.9612152749       25.7815817624
  H         9.5150619695        4.4991983999       27.1837482716
  C         7.5226091956        5.3168610254       25.3446720053
  H         8.0172179772        6.5251020808       27.0553233801
  H         8.8735045637        6.9034417414       25.4659037328
  C         7.1859425339        3.9737356238       26.0131401949
  C         7.9644407408        4.5548786246       24.1942063282
  C         6.1942864671        6.1128142882       25.0479349000
  C         7.4971141718        2.8310768027       25.3045567799
  C         6.5572611576        3.6941690466       27.2135183253
  C         7.9928395527        3.2302616892       24.0525410819
  C         8.4204827134        5.2662719300       23.0677984350
  H         6.4813418291        7.0021578816       24.4643894717
  H         5.7758498364        6.3156385259       26.0361594217
  C         5.0695498004        5.4014365876       24.3820349359
  S         7.0979651604        1.3613095113       26.1321730683
  C         6.4137338210        2.3097804359       27.4239247735
  H         6.0858830961        4.4752307312       27.7947392840
  C         8.3278073092        2.6395121367       22.8508590242
  H         8.3880357593        6.3361464367       23.1045865969
  C         8.7339392665        4.7575341270       21.8584102674
  H         5.4589782509        5.0809382130       23.3944218329
  H         4.9555379969        4.5023567553       24.9318609675
  C         3.8303754040        6.2857205778       24.2857201263
  C         5.9777702601        1.5472527964       28.6081095019
  C         8.6819686763        3.4044469071       21.7536462132
  H         8.2432229172        1.5331401779       22.8039456007
  C         9.0520504018        5.1789746336       20.5752181712
  H         3.1117834533        5.7556312947       23.6056162578
  H         4.1508549702        7.2974015870       23.8554562473
  C         2.9846636447        6.4824174035       25.5231069902
  C         6.1382808327        0.1832385982       28.9606241692
  C         5.3123482508        2.3644423732       29.6439851380
  C         9.0241920590        2.8075158479       20.4359991748
  C         9.2239330843        4.0983027269       19.7114655239
  S         9.3219706925        6.6703853752       19.7263362214
  H         2.2988291879        7.3759598104       25.4649663547
  H         3.7285453446        6.9852650867       26.1485096158
  C         2.2926752064        5.2749083908       26.1076415945
  N         6.5166856218       -0.8235192281       28.0509199689
  C         5.7501416388       -0.3085097018       30.1944799034
  C         5.0685100076        1.8475165238       30.9118354438
  H         5.1172108334        3.4221314447       29.4757392435
  C         7.9523064488        1.9707384386       19.6202620162
  C        10.3764988392        1.9809148629       20.4399809513
  C         9.5462998215        4.4665840744       18.3971404687
  C         9.5307235160        5.8380382340       18.2262959616
  H         1.5421689294        4.9303141328       25.3348225554
  H         2.8341429211        4.4641861798       26.3406398705
  C         1.4843509040        5.6885220186       27.4024226505
  S         6.4687336308       -2.3154486106       28.8184911585
  N         5.8540933205       -1.7294510676       30.2592022877
  C         5.2318016961        0.4443189266       31.2087517001
  H         4.6213044343        2.4377225038       31.6228860328
  H         7.7810226195        1.0794452009       20.1659807728
  H         8.1902011800        1.5661804173       18.5851598619
  C         6.5480347441        2.6524338028       19.6175479588
  H        10.4940398896        1.4250238200       19.5061889993
  H        10.1978515707        1.2062285672       21.1814007015
  C        11.5951128465        2.7690118898       20.9611550971
  H         9.7811509029        3.8438118420       17.5995442416
  C         9.7828777422        6.5763274972       16.9533082222
  H         0.9568623187        4.8582347291       27.6781083989
  H         0.8065979494        6.5101926113       27.2919798404
  C         2.4004815679        6.0275881781       28.6071482345
  C         4.9882334100       -0.1708271757       32.4684861805
  H         6.6839926236        3.3047676731       18.7489226746
  H         6.3954067728        3.2547210736       20.5214126601
  C         5.5489057018        1.5551018016       19.3679035745
  H        11.4467107331        3.3176433770       21.8859277761
  H        11.8539554163        3.5050331766       20.2017351256
  C        12.7118539767        1.7594221323       21.1917302192
  C        10.0083276684        7.9604005514       16.8082918034
  C         9.8553324796        5.7861962471       15.6876635844
  H         3.1761802185        5.1445967848       28.6939265967
  H         2.8798015672        6.9767116641       28.1905868314
  C         1.6910233729        6.2023556248       29.9658280579
  H         5.1410988302       -1.2434735895       32.5036856544
  C         4.6882713628        0.2901170528       33.7440703038
  H         5.4644135165        0.9548652800       20.2653128141
  H         5.8848329591        0.8021665141       18.7218935364
  C         4.1485920924        2.0604937640       19.0397738412
  H        12.5602814147        1.2282830852       22.0860812309
  H        12.6360293533        0.9912492266       20.3820688803
  C        14.0291759174        2.5030870701       21.1349133996
  N         9.8915635165        8.8648541772       17.8811094461
  C        10.2778386604        8.6038240109       15.6048537156
  C        10.2190951541        6.3674351220       14.4928028310
  H         9.6164467776        4.7361691402       15.7195883290
  H         0.8909991623        6.9534852599       29.9428721422
  H         1.1767097505        5.2889024644       30.2828029656
  H         2.4983475772        6.3821028213       30.7394003741
  S         4.4523359918        1.9557104193       34.1741290253
  C         4.7888529962       -0.6620715652       34.9290960795
  H         3.8710264650        2.6231058354       19.9772222325
  H         4.0601563756        2.7698613893       18.1545046147
  C         3.1065591498        0.9064237058       19.0662195455
  H        14.2289032437        3.0895955659       20.2058738382
  H        14.7566193607        1.7493445635       21.0011087903
  C        14.3493525463        3.3427298061       22.4352627676
  S        10.1769553447       10.3572555721       17.2538328878
  N        10.4756040216        9.8939708327       15.7314616929
  C        10.5124609737        7.8564003536       14.3988212648
  H        10.4880250820        5.7775636790       13.6094902050
  C         4.3147154294        1.3573788732       35.8327563984
  N         4.4758470098       -0.0052973495       36.0480607061
  O         5.1253660620       -1.8874200950       34.8184261531
  H         2.1520425648        1.2763750200       19.2073907834
  H         3.3139174250        0.3174374809       19.9589739711
  C         3.1708158482        0.0969350467       17.7823493431
  H        14.9591626737        4.1931998205       22.2693028723
  H        13.4336911629        3.8037329375       22.8484199248
  C        14.9660108089        2.4468554054       23.5230430026
  C        11.0139137751        8.5751113014       13.2775669192
  S         4.0113050647        2.3501060245       37.3033382827
  C         4.6106890731       -0.6567799224       37.3883401816
  H         3.1906954603        0.7858032566       16.9899324580
  H         4.1473518144       -0.4107464535       17.7085904512
  C         2.0586948984       -0.8988758420       17.6408540560
  H        14.7477795139        1.4129951918       23.3946997532
  H        14.6325981006        2.7952972786       24.4364786217
  C        16.4917273548        2.6203034491       23.4712537531
  H        10.9412063165        9.6743558746       13.3896254201
  C        11.5353529192        8.2263876193       12.0685039106
  H         3.8811903926       -0.1599277715       38.0555052782
  H         4.2060971914       -1.6683628338       37.4014823756
  C         6.0168395982       -0.7107114375       37.9051114717
  H         1.1974249789       -0.2299485797       17.4241479227
  H         2.0008433470       -1.5284233358       18.5815626496
  C         2.2198596436       -1.8518606815       16.4989080754
  H        16.7089948034        3.6241762440       23.7773473842
  H        16.8904926612        1.8904570369       24.2928189944
  C        17.2206757663        2.3238826781       22.1458803019
  S        11.9634175189        6.6305625261       11.5766132392
  C        11.7816800023        9.2574967619       10.9670697770
  H         6.8078343671       -0.6703943424       37.1856295226
  H         6.1369661407       -0.0070795425       38.7256358572
  H         6.0016650668       -1.6566750596       38.5129280478
  H         1.7158076896       -2.7453409290       16.7543636907
  H         3.3406806806       -1.9575403749       16.2685247298
  H         1.7813913858       -1.3565482613       15.6495697982
  H        18.2794993983        2.6400957720       22.1418726195
  H        16.7417737661        2.9642129529       21.3304948929
  H        17.1071996947        1.2847346608       21.9018588003
  C        12.4966738200        7.3588387885       10.0548734179
  N        12.3552848327        8.6622804334        9.9243409633
  O        11.6061381185       10.4603409715       11.0956636930
  S        12.9526552861        6.3448217491        8.6971905386
  C        12.5395618551        9.3766057353        8.6610878813
  H        12.8869093476       10.3928227430        8.8473535206
  H        13.3390010465        8.8057941849        8.1188198600
  C        11.3104168772        9.3838482417        7.7224679445
  H        11.6408071730        9.2511111324        6.6821927313
  H        10.5972680191        8.6249251413        7.9136595261
  H        10.8341026161       10.3722656796        7.8160191147
  H        20.5247998340       11.4617927324        3.5730542839
  C        21.1711183101       10.5806227245        3.5233618990
  H        20.4770055468        9.8245764242        3.7495540589
  C        22.2804627656       10.6355909348        4.5390058458
  C        21.7697445067       10.3614539971        2.1354383401
  C        21.9561551994       10.6525148918        6.0762624423
  H        22.8844934579        9.7059006175        4.3590936523
  H        22.7757041655       11.5370904296        4.1880502384
  H        22.0065310031       11.3237363061        1.6915311073
  H        21.0310465465        9.8864783436        1.4744641833
  H        22.5984118107        9.7330720586        2.1367584724
  C        20.9603459996        9.5293637735        6.5299761718
  H        22.9110051148       10.5419384182        6.6644962691
  H        21.5830762738       11.5896993415        6.4022294518
  C        20.2633126182        9.7560885556        7.8467060767
  H        21.6392805285        8.7333112610        6.6336908268
  H        20.2033848273        9.1902386532        5.8347645684
  C        18.9579716947       10.5797312619        7.7490590588
  H        20.9498440034       10.2433813230        8.4986707196
  H        20.1778742418        8.9087799966        8.4615000365
  C        17.7784434095        9.9895325165        6.8974703575
  H        18.6104126640       10.8385359591        8.7102860455
  H        19.1740108093       11.5260564598        7.2221758985
  C        16.5468464815       10.9516689638        6.8550696377
  H        17.5400743422        8.9997911653        7.3894263107
  H        18.1228868133        9.6861283815        5.9245831243
  C        16.8700948561       12.2974859555        6.2042382466
  C        16.0291835990       11.6543462161        8.0638835128
  C        15.5094158675       10.2041883299        6.0496987901
  C        16.5434785218       13.3793420340        6.9759864806
  C        17.4378805216       12.6372133926        4.9890986486
  C        16.1126347357       12.9738223855        8.2525080985
  C        15.6079436759       10.9386542746        9.2191997200
  H        15.8928049644        9.7454148343        5.1753402449
  H        15.0380860253        9.3978277211        6.6528205628
  C        14.3116009313       11.0733577874        5.5886399264
  S        16.8190290910       14.8441907210        6.1870895072
  C        17.4826786410       13.9766652408        4.8290569382
  H        17.5516987932       11.7937484054        4.2831312288
  C        15.6914129267       13.5848044685        9.4120629264
  H        15.4983345089        9.8750693410        9.2406329305
  C        15.2796856292       11.5692937872       10.3856377902
  H        14.5527321837       11.9604858465        5.1909267579
  H        13.7329112339       11.3973232256        6.4403416967
  C        13.3384446993       10.3156858495        4.6248395620
  C        17.7817967843       14.6257144852        3.5440140387
  C        15.2477085185       12.8698208893       10.5282616041
  H        15.9299061065       14.6427925988        9.5791395361
  C        14.8389266066       11.1477806516       11.6306147035
  H        12.3674847175       10.7722288278        4.5449229968
  H        13.2284956234        9.2712761757        4.8223264023
  C        13.8802965058       10.3172175387        3.1665387286
  C        17.7792669262       15.9985769683        3.2687429944
  C        18.1748784984       13.8254511974        2.4227264293
  C        14.8985710247       13.5824790725       11.7731392789
  C        14.6449387115       12.2163463627       12.4303203352
  S        14.5645555522        9.6520710555       12.4432840371
  H        14.9283104556       10.1566998376        3.1391276252
  H        13.8916889761       11.3618808159        2.8325055469
  C        12.9863603611        9.4849164060        2.3035869244
  N        17.5932181071       16.9543545872        4.2209050165
  C        18.0726867368       16.5812137444        1.9990220353
  C        18.3985258861       14.2749042414        1.1517118088
  H        18.3541290423       12.7465483459        2.5588097971
  C        13.5233371261       14.4236145657       11.7627242637
  C        16.0378428926       14.3967800876       12.4737115319
  C        14.2757199453       11.8966775269       13.7061323327
  C        14.3260336354       10.5190539175       13.9054380855
  H        13.3517544619        8.4559241650        2.1725626121
  H        11.8743289651        9.4549646213        2.5457805883
  C        13.0699279469        9.9711533348        0.9146746835
  S        17.4511305703       18.4203426930        3.4880647005
  N        17.9894342812       18.0068182778        1.9490229887
  C        18.4289033240       15.7600815654        0.8520207604
  H        18.5635153771       13.5860247853        0.4313089328
  H        13.7654573435       15.4036359488       11.2742595972
  H        13.1645049532       14.7936318983       12.7434778932
  C        12.3479372739       13.7119954762       11.0227399430
  H        16.1758064952       15.2387737674       11.7912344497
  H        15.5349785049       14.7197156589       13.3880547037
  C        17.3468270199       13.6493440315       12.7673764278
  H        14.1292085928       12.6223425976       14.4705066844
  C        14.0448876480        9.8271701060       15.1997362434
  H        14.0387020227        9.5972121310        0.4958018622
  H        13.0959456770       11.0237100714        0.8839546985
  C        11.9908844808        9.4538800460       -0.0288928146
  C        18.7167516878       16.3226542643       -0.4221726087
  H        12.6495729970       13.5956668397        9.9767749286
  H        12.1923888889       12.6893126880       11.4289624429
  C        11.0998698030       14.4545718972       11.0874312746
  H        17.7048944004       13.1708164036       11.8471510732
  H        17.1582723229       12.8842175008       13.4720667012
  C        18.4201912915       14.6388774405       13.1936373259
  C        13.9323106652        8.4638727882       15.3982176252
  C        13.8085963015       10.6160430614       16.4341940940
  H        12.0801419862        8.3835759493        0.0447080917
  H        11.0352459082        9.6969443271        0.4397950965
  C        11.9050317237       10.0083273231       -1.4807204908
  H        18.6073890378       17.4174339854       -0.3833218339
  C        19.0428943701       15.8059605217       -1.6641578454
  H        11.1295500316       15.1162498901       10.2264039359
  H        11.1124481244       14.9826282720       12.0059423073
  C         9.8204576886       13.6720033310       10.9691068032
  H        18.5079528683       15.4000991901       12.3994301587
  H        18.2633305209       15.1535499976       14.0790090173
  C        19.7420008377       13.9507934419       13.4833496598
  N        14.0903730572        7.5191738494       14.4145634043
  C        13.5240046967        7.8751080722       16.5744349687
  C        13.4500159500       10.0154905340       17.6571472890
  H        14.0004545832       11.6913716186       16.4804001039
  H        11.5759271270        9.2152028196       -2.2343018807
  H        12.7457094680       10.4965111096       -1.8557740768
  H        11.0936814569       10.7395956118       -1.5409602895
  S        19.3247158975       14.1673889223       -2.0594719250
  C        19.2410734452       16.8446418832       -2.7555950006
  H         9.7734263912       12.9261760831       11.7262312730
  H         8.9998929640       14.3224164238       11.0866886392
  C         9.5842555446       13.1736315352        9.5572161778
  H        20.2584600518       13.9774100939       12.5102933945
  H        19.7071681010       12.8851333347       13.6270025773
  C        20.7014533005       14.7905990002       14.2968796965
  S        13.7178782597        6.0099870430       14.8568507170
  N        13.3449588356        6.5053613732       16.3894648519
  C        13.3408985850        8.5480488438       17.7662772213
  H        13.4706326496       10.6060357342       18.5381569759
  C        19.6286989797       14.7204659869       -3.6845436686
  N        19.4537317472       16.0918885447       -3.8424805316
  O        19.3690953685       18.0979908746       -2.7030465252
  H         9.8591166427       13.9172834084        8.7811235463
  H        10.2484782182       12.3307993069        9.3427904511
  C         8.2157528839       12.5973083612        9.4094738028
  H        20.5214023682       14.8594162116       15.4382007649
  H        21.6900302315       14.2893295526       14.2415959049
  C        20.9709511929       16.1802624041       13.6784756741
  C        13.0757424619        7.7995743854       18.9458881344
  S        20.2817519706       13.8341064529       -5.1286422462
  C        19.6505628685       16.7794479351       -5.1502433276
  H         8.2771175670       11.7391279738        8.7297655353
  H         7.8000492565       12.2532016293       10.3998631060
  C         7.2090950277       13.5436026280        8.7871416337
  H        20.1289600700       16.7751149077       13.7684342083
  H        21.2335887983       16.0597039171       12.6507905393
  C        22.1490020012       16.9423854167       14.2948546546
  H        13.3263735318        6.7340037593       18.7140717719
  C        12.5212553962        8.0553196882       20.1620696782
  H        20.3332380991       16.2415322579       -5.8309703680
  H        19.9216781588       17.8566203248       -5.2005764064
  C        18.1805791982       16.8892939811       -5.7299293783
  H         6.8904460033       13.1570906090        7.8694802209
  H         7.7619369488       14.5132632684        8.5163843729
  C         5.9983126088       13.8206597741        9.7662927794
  H        23.1039685952       16.3888252430       14.3247030864
  H        22.3115763625       17.8623613781       13.7691385152
  C        21.8528309920       17.2403258353       15.7533285836
  S        11.9518801766        9.5598478426       20.8101956335
  C        12.4001084272        6.8823359472       21.0690276179
  H        18.0146982918       17.8875597415       -6.1724960881
  H        17.4910367027       17.0044300170       -4.8286798398
  H        17.9498234822       15.9947486921       -6.3150823114
  H         5.6033845089       12.9591829846       10.1328285859
  H         6.3665739211       14.3889643532       10.6448895174
  H         5.2020478233       14.2829600549        9.1864070056
  H        22.7356445860       17.7712745988       16.1247718495
  H        21.0255693504       17.9419364022       15.8640365132
  H        21.6406432077       16.3420417519       16.3305780714
  C        11.4270039965        8.5874702667       22.2048076364
  N        11.8182981245        7.3360025154       22.2116830999
  O        12.7819679592        5.7409987099       20.8669705864
  S        10.9231221433        9.3064062664       23.7305726973
  C        11.7554078156        6.5236303064       23.4321288140
  H        11.6530913356        5.5159253471       23.0555009100
  H        10.8779363633        6.6728369163       24.0621572770
  C        13.0235745473        6.6855765782       24.3400862795
  H        13.9989829654        6.4547769368       23.8209627056
  H        13.0573096977        6.0150694948       25.2141360675
  H        13.0519068871        7.6838392022       24.7063911864
