352
 i =    22100, time =    22100.000, E =        24.5068854998
  H        11.8481305642        7.0757168456       32.6887693087
  C        11.3923755526        6.1136861581       32.3174490713
  H        12.1296295022        5.3439583978       32.2580721074
  C        11.0292467260        6.4749804445       30.8483042793
  C        10.1347137043        5.6872757292       33.1412096279
  C        10.3634166827        5.3334922443       30.1720963335
  H        10.3658598837        7.3174020214       30.9592442925
  H        11.9674352667        6.7466311530       30.3397651676
  H        10.1707073146        6.0163767331       34.1685129607
  H         9.2179686505        6.0292591218       32.6599503113
  H        10.1209167562        4.6394953875       33.1600048300
  C         9.5696628738        5.6799756789       28.9284568518
  H         9.6913437030        4.8360417892       30.7887637271
  H        11.0154715856        4.5413993287       29.8447289639
  C        10.3646546381        5.6498074667       27.6900246475
  H         8.7300181344        5.0644058358       28.8205821203
  H         9.0612418898        6.6479867427       28.9532528305
  C         9.4955246711        4.9207494001       26.6446722650
  H        11.2300620187        5.0049329013       27.8873613944
  H        10.5998789895        6.5796279780       27.3649589381
  C         8.2506523987        5.7730164358       26.2453380713
  H        10.1200202715        4.6589560513       25.7834593061
  H         9.1947797278        3.9766705244       27.0408918049
  C         7.1551559187        5.0281909609       25.5641393555
  H         7.8942817108        6.3788747512       27.1177563405
  H         8.4855007392        6.6360744569       25.6177844377
  C         6.8264615693        3.6455470351       26.2224018944
  C         7.5274921261        4.2720172649       24.3125791550
  C         5.9177392101        5.9534040272       25.2736555063
  C         7.0342094401        2.5479159872       25.4126548975
  C         6.3319048871        3.2811293607       27.5086387747
  C         7.4522639641        2.9492459462       24.1762679037
  C         7.8898091039        5.0011787441       23.1827448937
  H         6.1799779662        6.8300367962       24.6197782716
  H         5.6679907136        6.3732788681       26.2494672155
  C         4.6807947103        5.2491296851       24.6765962149
  S         6.7236257803        1.0485471647       26.2236462934
  C         6.2769323321        1.9421995557       27.6490680388
  H         6.0748812324        4.1024276177       28.2138656549
  C         7.8230853758        2.3469476594       23.0394818109
  H         7.9057383864        6.0593785430       23.2570495435
  C         8.2632764539        4.4223142830       22.0173817976
  H         4.7512707298        5.0137987937       23.6914053067
  H         4.5227097196        4.3242658659       25.2098265123
  C         3.4031251502        6.0268067624       24.8717838418
  C         5.7953743550        1.2868747913       28.8950247105
  C         8.2159668531        3.0574194356       21.8806283213
  H         7.7693132705        1.3008233719       22.9774152158
  C         8.7197037511        4.7989032669       20.7628794889
  H         2.6097745928        5.5466611365       24.2411359314
  H         3.6603269475        7.0567951855       24.5933662204
  C         2.9383236745        6.0176484554       26.3450949317
  C         5.7644183120       -0.1397428980       29.0926513806
  C         5.2960912244        2.1330143808       30.0030033832
  C         8.6221398710        2.4214701966       20.5751799429
  C         8.9290001941        3.7563016157       19.9131429956
  S         8.8978346706        6.3334464813       19.9843774498
  H         2.1913972717        6.7984075773       26.4614827586
  H         3.8152253910        6.1868904285       27.0400558879
  C         2.0028953971        4.8624186020       26.7705739075
  N         6.2587869821       -1.0938101872       28.1698029722
  C         5.4133008752       -0.6895232246       30.2545855146
  C         4.9603319723        1.5465845152       31.2305064761
  H         5.1593955029        3.2115049865       29.9718367010
  C         7.3618992137        1.6610207510       19.9904129525
  C         9.9965146011        1.5908811549       20.6637366778
  C         9.3604099387        4.1857922299       18.6909911963
  C         9.4136053499        5.5485285508       18.5500226064
  H         1.3332166557        4.6680135134       25.8960390815
  H         2.5866226138        3.9435104417       26.8091837299
  C         1.1142716834        5.1422946781       27.9815280402
  S         6.0429600017       -2.6086972589       28.8546889527
  N         5.5531924690       -2.1025768427       30.3334734235
  C         5.0532190808        0.0606337062       31.4287560245
  H         4.7000667593        2.1835356994       31.9967828782
  H         6.9264328158        1.0379255566       20.7772124792
  H         7.6682220312        1.0543234895       19.1432904409
  C         6.2330585523        2.5239821152       19.4113432637
  H        10.2027026420        1.2765614934       19.6278024801
  H         9.8926980535        0.6803836451       21.2446203728
  C        11.2783041764        2.2898142426       21.1919145788
  H         9.4675817282        3.3548571880       17.9988483675
  C         9.6532396115        6.2442921908       17.2266612907
  H         0.2939865692        4.3736303612       28.1544611148
  H         0.6049009252        6.1411520779       27.7715410140
  C         1.9460724289        5.3346012227       29.1953715221
  C         5.0751461702       -0.5742143412       32.6615179690
  H         6.5997278270        3.1963647675       18.6415322137
  H         5.6995598058        3.1744324767       20.1758138439
  C         5.1560037470        1.5696802392       18.7186126264
  H        11.1421429250        2.6736921686       22.1769031451
  H        11.4314094158        3.2377266931       20.6484118070
  C        12.4614034006        1.3430965945       21.2033756225
  C         9.7200216164        7.6383209255       17.0431785021
  C         9.8483061784        5.4368159419       16.0466604708
  H         2.4782184213        4.4715691241       29.2875094448
  H         2.7517843879        6.0912508354       28.9943882427
  C         1.1379652107        5.6965060783       30.4830138197
  H         5.3661757213       -1.5831939206       32.6701397719
  C         4.6740165745       -0.1599286041       33.9113443147
  H         4.5922538037        1.0808478216       19.4874076426
  H         5.6735487000        0.7790661506       18.1909129302
  C         4.1480351252        2.2972701704       17.8982057967
  H        12.5392625704        0.9325129381       22.1736428313
  H        12.2559115674        0.4849672938       20.6192271530
  C        13.7778316292        1.8480235758       20.6201764025
  N         9.6514175955        8.5541210715       18.0844327312
  C        10.0063032160        8.2067651989       15.8387208233
  C        10.1471710944        6.0250664653       14.7991779971
  H         9.6282831911        4.4097612249       16.1368594632
  H         0.3944599085        6.5363297475       30.2451734047
  H         0.5319353132        4.8874953063       30.7470682878
  H         1.8778674600        5.8728947702       31.3567638546
  S         4.1627209802        1.4044566843       34.3966754968
  C         4.7041373773       -1.1385262061       34.9729441978
  H         3.9120005774        3.2958469088       18.3534708955
  H         4.4945762537        2.5066981126       16.8798503547
  C         2.7874291187        1.6268031721       17.8208293633
  H        13.5269358838        2.7850859478       20.0834360011
  H        14.0555896948        1.1850611150       19.8151663843
  C        14.8633785241        2.2390825168       21.6540952868
  S         9.9122087874       10.0588380678       17.4775203239
  N        10.0158951597        9.6283238690       15.8977874644
  C        10.2929080636        7.4843358940       14.6931300891
  H        10.1252651952        5.3827198015       13.9593407800
  C         4.1598758834        0.7119782413       36.0220596836
  N         4.3015230578       -0.5664691194       36.1467043986
  O         5.1077135542       -2.2514438627       34.8655679866
  H         2.0771801330        2.1957999919       17.2626634521
  H         2.2697086272        1.3989191824       18.8203851666
  C         2.8535107129        0.3271850255       17.0969892281
  H        15.7719762309        2.5148992887       21.1282678916
  H        14.4681220117        3.1520644867       22.1597145322
  C        15.1843904980        1.1731204378       22.6823652703
  C        10.6162964204        8.2685087601       13.5355349477
  S         4.1089333100        1.7941674708       37.4469386235
  C         4.4615811316       -1.2197512249       37.4499670935
  H         2.6844816693        0.4871416455       16.0205256436
  H         3.9058133500       -0.1176827029       17.1653533358
  C         1.8777553184       -0.8150320062       17.6405660197
  H        15.6524104766        0.3377031468       22.2289145326
  H        14.3448615776        0.8262952330       23.2535452548
  C        16.1210555114        1.7311034482       23.7454463224
  H        10.1876997962        9.2167304273       13.5015056362
  C        11.2417417481        7.9439818649       12.3911300466
  H         3.8758283784       -0.7807089964       38.2312345968
  H         4.1464958318       -2.2941397417       37.4729226112
  C         5.9871312095       -1.1500452814       37.9230621199
  H         0.8722234570       -0.4184594783       17.6631102368
  H         2.1247584918       -1.0010080243       18.6121009075
  C         1.9149184755       -2.1254616146       16.8120183759
  H        15.5477598578        2.5207152297       24.1905382219
  H        16.2912894787        0.9668570978       24.4794044646
  C        17.4172922277        2.1836145977       23.1467332978
  S        11.9336338738        6.3911433354       12.0600235709
  C        11.3190662353        8.9893427932       11.3691782671
  H         6.2218743123       -1.7696569642       38.7664214325
  H         6.5740583570       -1.5663752042       37.1324597724
  H         6.4505355400       -0.1679787798       37.9612210845
  H         1.6255672584       -1.8281354508       15.7923301637
  H         1.2528933812       -2.8996361110       17.2248640592
  H         2.8943079853       -2.5505473876       16.5844105741
  H        18.2150816481        2.0406273355       23.8589541658
  H        17.5358414638        3.1530711252       22.7357979773
  H        17.6745790299        1.4725121548       22.3390477562
  C        12.2604740888        7.0943310788       10.4624584501
  N        11.9970297053        8.4395791689       10.2952635206
  O        10.6916745994       10.0670300321       11.3569527574
  S        13.0756346059        6.3074266222        9.1799644058
  C        12.1664737649        9.2762812192        9.1111640590
  H        12.2237334858       10.3248438143        9.4401530976
  H        13.0409522831        9.1347909875        8.5312065315
  C        10.9710820575        9.1034467258        8.2584002716
  H        10.6980628580       10.0291386701        7.7332799745
  H        11.1683211674        8.3813599657        7.4728335423
  H        10.1283438808        8.8352315839        8.8220134157
  H        20.7080523916       10.1816398421        2.9167858116
  C        21.7158511075        9.8781983157        3.1360535995
  H        21.5734821908        8.8224993071        3.4226559709
  C        22.3741117429       10.5890034562        4.3616248898
  C        22.4845388438        9.7837918135        1.8101193703
  C        21.5384830207       10.8553342791        5.6881378466
  H        23.2500966120        9.9774755853        4.6693056132
  H        22.8121014570       11.5218637318        4.0354433801
  H        22.0809089842        8.8877014217        1.3420691906
  H        23.5413426900        9.5202993279        2.0137226933
  H        22.3419344062       10.6035020052        1.1069547288
  C        20.8668255566        9.6807232556        6.3858713525
  H        22.3084537798       11.2655586851        6.3706812358
  H        20.8441309702       11.6795533277        5.4327254917
  C        20.3139325507        9.9422294494        7.8013086582
  H        21.6239134779        8.8743025922        6.4038325252
  H        20.0344566775        9.4583440482        5.7658052112
  C        19.1069916680       10.7501842409        7.7651444810
  H        21.0462920000       10.6012798432        8.3656145944
  H        20.1304898640        9.0570810600        8.4369497611
  C        17.8318991274        9.8363638450        7.3686280069
  H        18.9288558850       11.1552962840        8.7369633319
  H        19.2068123086       11.5893712518        7.0717979628
  C        16.5573011436       10.7265812658        7.0661095403
  H        17.6275595168        9.0650997000        8.1159149885
  H        18.1091119693        9.2863049140        6.4430019407
  C        16.8694376156       12.0932121196        6.3165735169
  C        16.1154819875       11.5318110507        8.2577774496
  C        15.4037263377        9.9654027058        6.3259805303
  C        16.6138914780       13.2285015327        7.1012401635
  C        17.3875777081       12.4601330230        5.1021236445
  C        16.1427179372       12.9239860014        8.3352853259
  C        15.6093792949       10.8769730559        9.4352164233
  H        15.8129425491        9.4485130036        5.4573915437
  H        15.0827255849        9.1219569819        6.8641454430
  C        14.1828577094       10.7948676054        5.8652833436
  S        17.0183953916       14.7069778982        6.3306892575
  C        17.4951028372       13.7684047490        4.9191741743
  H        17.6965986953       11.6190122571        4.4682949339
  C        15.6820991141       13.5438013231        9.4319826780
  H        15.4877925806        9.8623269009        9.4311794625
  C        15.2244748956       11.5234153313       10.5454200544
  H        14.5298954164       11.7516300459        5.5319018084
  H        13.7977977327       11.0821722425        6.8726959840
  C        13.1106322231       10.0952337274        5.0048407149
  C        18.0586419301       14.3734026231        3.7261553527
  C        15.3523869693       12.8972688886       10.6477264594
  H        15.6859084114       14.6627346471        9.4458659654
  C        14.7807319544       11.1263039571       11.7548501282
  H        12.3358940331       10.8577940703        4.9152259692
  H        12.9580504511        9.1971039244        5.5991397642
  C        13.6357430771        9.8355737735        3.5619091032
  C        18.1428774487       15.7352123927        3.5126467055
  C        18.4090836444       13.4268204610        2.5467403734
  C        14.9346725161       13.5578170482       11.8902141237
  C        14.5688247790       12.2458041738       12.5579006305
  S        14.4696472490        9.6286593542       12.5874417535
  H        14.2880930172        9.0117321064        3.6888337440
  H        14.0672679274       10.7444283800        3.1663548539
  C        12.4549782258        9.4655950665        2.6527585700
  N        17.7932429394       16.7117275319        4.3742184455
  C        18.4518230091       16.2137959009        2.2512347802
  C        18.7869498924       13.9747050095        1.3110296190
  H        18.2064950510       12.3732031223        2.5924758677
  C        13.6150923964       14.3007751803       11.6671744813
  C        16.1205966379       14.3716069452       12.5329815548
  C        14.0962850427       11.8607333081       13.8436569367
  C        13.9529270696       10.5025372830       13.9975252591
  H        12.3931978470        8.3670232948        2.5207544457
  H        11.5492626547        9.6290497491        3.1340307364
  C        12.4136543195       10.1534704257        1.2310941038
  S        17.9553956826       18.2172013294        3.6768612655
  N        18.5250842116       17.6196301962        2.2270724056
  C        18.6574563806       15.4562413061        1.0556429507
  H        18.9796768130       13.2502884832        0.5874796219
  H        13.7645088463       15.1210757604       10.9589078252
  H        13.3787497759       14.6867636152       12.6748381027
  C        12.4444386149       13.4163119145       11.0546479777
  H        16.5441900714       14.9484808773       11.7228776601
  H        15.7144295537       15.0665394660       13.2571604570
  C        17.2466775466       13.4854496563       13.1052935292
  H        13.8559863013       12.5668694203       14.5598280697
  C        13.7017162535        9.8268343345       15.2725207437
  H        13.1378029006       10.9479650864        1.1462446936
  H        11.3416377892       10.3904976936        1.1084719733
  C        12.8624202454        9.1143201164        0.1718289673
  C        19.0229154616       16.0717219978       -0.2091269104
  H        12.6774452267       12.8381942342       10.1507035598
  H        12.0678346369       12.7526218665       11.7290484327
  C        11.2960684002       14.3142464620       10.6746132704
  H        17.4234083630       12.8048446965       12.3186351114
  H        16.9124492251       12.8226747256       13.8799276272
  C        18.4281451228       14.3692647965       13.5377082657
  C        13.5726062856        8.4302382297       15.4439582291
  C        13.7642037149       10.5994845307       16.5253845214
  H        13.8634292585        8.7451640259        0.2795679504
  H        12.1828261954        8.2307161727        0.2899306543
  C        12.7812234280        9.6948999625       -1.2798025078
  H        19.0619218723       17.1675988674       -0.1160468140
  C        19.3090829069       15.6789061381       -1.4864002608
  H        11.6320148569       14.9734823864        9.8745431578
  H        10.8345952870       14.8671717953       11.4720483009
  C        10.2853726816       13.4541903135        9.9131273563
  H        18.6660359792       15.1197527142       12.7794866526
  H        17.9925989406       14.8869093362       14.4360120817
  C        19.7147089956       13.6785550508       13.8908645656
  N        13.7575583812        7.4563137815       14.4557494146
  C        13.3036001300        7.8301107019       16.6417040103
  C        13.3675640602        9.9487351592       17.7889766157
  H        13.8972564029       11.6673114644       16.5339283079
  H        13.5766658984       10.4671818851       -1.2745400164
  H        11.7749447660       10.1385620795       -1.4692318723
  H        12.8685265391        8.9481352631       -1.9929554400
  S        19.5198563332       14.0793721917       -2.0589395536
  C        19.4202568670       16.6609736402       -2.5547292058
  H        10.5909436939       13.2452103729        8.8570558554
  H        10.2579672616       12.5525848649       10.5627912869
  C         8.8865140879       14.1221760325        9.7169642888
  H        19.9899279090       12.7679181082       13.3008382132
  H        19.6289181180       13.3733209047       14.9304753711
  C        20.8474050048       14.6536761034       13.9710358379
  S        13.6416680434        5.9501996488       15.0335122994
  N        13.3247089919        6.4290932595       16.5071308421
  C        13.1492153093        8.4318547436       17.8413623599
  H        13.2683179702       10.5578517783       18.7003802524
  C        19.8534347635       14.7682162174       -3.5582988737
  N        19.9138701838       16.0444035555       -3.6431817049
  O        19.3958967994       17.8923422102       -2.3853909193
  H         8.6583469236       14.8911509636       10.4860193200
  H         8.9664183272       14.6511937533        8.7686399130
  C         7.7710725150       13.2096743208        9.5615291470
  H        21.7573454553       14.2322686398       14.3005113352
  H        21.0103223620       15.1749181457       12.9873925382
  C        20.7850955497       15.8276148785       14.9984066093
  C        12.8472809562        7.6804537642       19.0121390869
  S        20.2620068758       13.8065606996       -4.9822853435
  C        20.0620158034       16.8208362325       -4.8705067320
  H         7.8543246161       12.8688812419        8.5582656238
  H         7.6991221475       12.3723750040       10.2584275913
  C         6.3943997437       13.9541822749        9.5354280979
  H        20.7379000366       15.5124001227       15.9796945303
  H        19.8897322523       16.5354349849       14.9076691979
  C        22.0458735895       16.7051357803       14.7817763408
  H        13.2627864524        6.6600078517       19.0249351135
  C        12.2129128010        7.9692399556       20.1840746761
  H        20.6232116573       16.2291654577       -5.6223460232
  H        20.5788344672       17.7146397868       -4.7250524360
  C        18.7012997534       17.0819217965       -5.4773221846
  H         5.5874747800       13.3614115854        9.0263559875
  H         6.4964368380       14.9803951249        9.1540285219
  C         5.8992453714       14.1218479055       10.9618905492
  H        22.1433500558       17.4102574111       15.5857571486
  H        22.8348668081       15.9543176408       14.8943074380
  C        21.9918270612       17.4421804772       13.3971974365
  S        11.5620648513        9.4566926720       20.5931895612
  C        12.1011258053        6.8656936577       21.2181381294
  H        18.1094428959       16.1385870633       -5.6869949123
  H        18.7117392481       17.5932798664       -6.4601109430
  H        18.1481940971       17.6214729613       -4.7299528797
  H         5.8437178353       13.1768252267       11.4119171640
  H         6.4989654287       14.7348332675       11.5698669070
  H         4.8930581818       14.4991499826       11.0156504314
  H        21.1291079266       18.0479876820       13.1910420982
  H        22.8414914281       18.0646788587       13.3783272360
  H        22.1290297202       16.7869727235       12.5059543261
  C        10.9630233126        8.6670018908       22.0933081642
  N        11.2511926030        7.3194362824       22.1330071593
  O        12.4920800404        5.7200267943       21.1179699546
  S        10.3590587630        9.5434341424       23.5433155643
  C        10.8922000437        6.5051355277       23.2015563055
  H        10.5805226981        5.4825093216       22.8147384831
  H         9.9590053689        7.0148404873       23.6133550902
  C        12.0285166191        6.3945152770       24.2317519273
  H        11.7296313042        6.1246268550       25.2504732520
  H        12.6174628255        7.3048195840       24.3277208130
  H        12.7214231088        5.6347150259       23.8369220638
