352
 i =     7000, time =     7000.000, E =        26.5417292665
  H        11.8166016525        7.1189328889       32.6470770150
  C        11.7668608965        6.0701421909       32.4140902706
  H        12.6974521124        5.7594361610       32.0204744735
  C        10.6446109898        5.9001760192       31.4023825312
  C        11.3720001945        5.3104855321       33.6831781594
  C        11.2094064134        5.8486893949       30.0258842552
  H         9.9478233304        5.0977993656       31.5009553116
  H        10.0668754045        6.8324857622       31.4587867999
  H        10.2816782754        5.1373501658       33.7761302617
  H        11.9140012475        4.3997130696       33.9102272787
  H        11.6402926085        5.9500137551       34.4713308713
  C        10.1524453591        5.8595180664       28.9588855710
  H        11.8084273083        4.9104989103       30.1184714901
  H        11.8804356860        6.6855097622       29.7742632883
  C        10.6655916207        5.9206272140       27.4853661814
  H         9.6630227727        4.8434083014       28.9846586837
  H         9.3174256716        6.5316518157       29.2552389824
  C         9.7586149922        5.0372613377       26.4691750451
  H        11.6396654012        5.4783170688       27.5136283175
  H        10.7307299915        6.9724477072       27.2211909105
  C         8.3886363620        5.7446550170       26.2767268398
  H        10.3195864441        5.0685796030       25.5744268763
  H         9.7317785253        4.0482792794       26.7927206202
  C         7.3135770882        5.0192878170       25.4998182042
  H         7.9594861517        6.0561347290       27.2271115088
  H         8.5030782018        6.6363327122       25.7042308018
  C         6.9083312279        3.6871925589       26.0710369645
  C         7.7759248916        4.2999790046       24.2452181404
  C         6.0394769597        6.0114408529       25.3386548726
  C         7.1954493915        2.5785868051       25.3141372700
  C         6.4772843542        3.3471971180       27.3107948303
  C         7.7501767625        2.9452703041       24.0897247649
  C         8.2089932255        4.9885655905       23.0571109198
  H         6.2639791099        6.7910830644       24.5312676823
  H         5.8740960744        6.4511525645       26.3065448003
  C         4.7364277444        5.3292802006       24.7248198610
  S         6.7486873113        1.1139102896       26.0383732447
  C         6.3256573609        1.9769407830       27.4650498342
  H         6.1758280673        4.1092331537       27.9906559582
  C         8.2033244251        2.4420245494       22.9085562357
  H         8.0868308170        6.0577967478       22.9413326510
  C         8.6770124288        4.4085142576       21.8910002730
  H         4.9434379335        5.1660284027       23.6346189270
  H         4.5670283420        4.3402789779       25.1239366948
  C         3.5138318207        6.2463182819       24.7716966539
  C         5.8611854519        1.3305971260       28.6917185979
  C         8.6223815225        3.1024420233       21.7795124860
  H         8.1935617997        1.4389740786       22.8601310868
  C         9.0609523237        4.8262075138       20.5651821069
  H         2.8352653273        5.8642146189       23.9441877098
  H         3.7582950043        7.1845767911       24.3864635513
  C         2.6605260129        6.3347141500       26.0672058387
  C         5.8646640629       -0.1315435717       29.0056974740
  C         5.4749396472        2.2217267451       29.8261633833
  C         9.0120930599        2.3712696464       20.5505984617
  C         9.2979374028        3.7178330870       19.8061845330
  S         9.2404463946        6.2902151620       19.6987300501
  H         1.9055726047        7.0609973608       25.8019849061
  H         3.1273638763        6.8207283765       26.8927965703
  C         1.9218526863        4.9916183539       26.4018523057
  N         6.0079647035       -1.1234210375       28.0806643644
  C         5.6214715601       -0.6160538206       30.2594284069
  C         5.2667414332        1.6772637612       31.0930505033
  H         5.6234734318        3.3235243148       29.7363305250
  C         7.7989935550        1.6174838695       19.9389239778
  C        10.3686506078        1.5598747685       20.6821951663
  C         9.6360779740        4.0511868805       18.4365325493
  C         9.7435643707        5.4202143085       18.2844816127
  H         1.3032116283        4.6889724366       25.6191588063
  H         2.6045866569        4.1814700540       26.5622981162
  C         1.1528095320        5.1444912919       27.6934536724
  S         5.9204595490       -2.5568789284       28.8101908243
  N         5.5447974437       -2.0256038242       30.3178777148
  C         5.3564869414        0.2085280393       31.3574768886
  H         5.0210834762        2.3181065796       31.8995774584
  H         7.4255496254        0.9861574087       20.7662740605
  H         8.1322623201        0.8867828829       19.2137265535
  C         6.5690067559        2.3861695805       19.3142076620
  H        10.6796423347        1.1444627656       19.7267417073
  H        10.2347528708        0.7532756875       21.4103300726
  C        11.5833248772        2.3816964628       21.1929089470
  H         9.6868011410        3.2466151752       17.7119146625
  C        10.0721921861        6.1254646141       16.9904367517
  H         0.6324178625        4.2153916325       27.7046550252
  H         0.3488311985        5.9220024347       27.7150249238
  C         1.9506741529        5.4318420072       28.9982156424
  C         5.0254081052       -0.4489306617       32.5810697050
  H         6.8755377667        2.8859651275       18.4071844237
  H         6.2047307256        3.1850464104       19.9614628644
  C         5.4430300510        1.4845916357       18.9847631838
  H        11.2082710988        3.0260498243       21.9824246252
  H        11.9286696021        3.0679997634       20.4137995464
  C        12.7864795624        1.5634689691       21.6248216757
  C        10.1447898445        7.5710812007       16.8497081343
  C        10.1304752563        5.3825862661       15.6996191278
  H         2.6830215690        4.6482412954       29.0821125700
  H         2.4507132732        6.3690812103       28.9324608662
  C         1.1269011277        5.4705884250       30.3297683926
  H         5.1149719506       -1.4851112516       32.5883509031
  C         4.6004721672       -0.0703268315       33.8348901505
  H         5.1572255436        0.8683672957       19.8466995885
  H         5.7231592668        0.6170679503       18.3422773106
  C         4.1860445885        2.2281414353       18.4563114613
  H        12.9358079265        1.4516360382       22.7010974968
  H        12.8835387656        0.5010238927       21.4451076925
  C        14.0865831123        2.2672077935       21.2118766240
  N         9.8836492956        8.6008106411       17.8293112606
  C        10.4490652371        8.1923777208       15.6502250870
  C        10.3352014894        6.0068648240       14.4859711385
  H        10.1532701201        4.2942021065       15.7558904482
  H         0.5800577521        4.5286677788       30.5003369882
  H         1.6953430811        5.6759876360       31.1676343408
  H         0.3751712010        6.2001167081       30.1234934853
  S         4.4863358165        1.4866595963       34.4117219599
  C         4.5254374387       -1.0980301542       34.9048239424
  H         4.0824744384        3.1283764017       18.9248634342
  H         4.1213437716        2.4176337765       17.4009517784
  C         2.8506872368        1.4138023965       18.8841571802
  H        14.0767526283        3.3410096808       21.2326414593
  H        14.2344736484        1.9807741348       20.1665151626
  C        15.2653484504        1.5896891749       21.9304229724
  S        10.1527519025       10.0815042088       17.2451839234
  N        10.5403076322        9.6146230582       15.7391621792
  C        10.6314025205        7.5241486075       14.4051335156
  H        10.4683756749        5.3389973758       13.5912514182
  C         4.3995142662        0.8596817057       36.0371758968
  N         4.3703949024       -0.5169205396       36.1167374424
  O         4.8167435721       -2.2802168899       34.7845579210
  H         1.9921610114        2.0117098008       19.1610606681
  H         3.0283279550        0.8730536262       19.8673151367
  C         2.3352454563        0.4532061328       17.7783239480
  H        15.0762612038        0.5767912981       22.1104380552
  H        16.0754307468        1.6108686051       21.1986875942
  C        15.7629503188        2.4997781161       23.1115937106
  C        10.9930744020        8.1972863974       13.2646207632
  S         3.9825545955        1.7190030556       37.4953210919
  C         4.5755868251       -1.3460777700       37.3333732144
  H         1.2426873023        0.2736717424       18.0541805244
  H         2.0910852623        0.9244135044       16.7922627233
  C         3.0226312068       -0.8164652233       17.6066633447
  H        14.9984717821        2.3816509442       23.8156361138
  H        15.7683319358        3.5116055943       22.8596028670
  C        17.0143544345        2.1134288007       23.7966357695
  H        10.7865009834        9.3299479493       13.4797382285
  C        11.5460188122        7.7569313919       12.0319654459
  H         4.0365162051       -0.8939684590       38.1392963019
  H         4.2303600284       -2.3634984036       37.1766722073
  C         6.0257960760       -1.4425289042       37.8133463157
  H         3.5334392665       -0.9743030738       18.5694362655
  H         3.7934591027       -0.5221559583       16.8047290256
  C         2.2950401885       -2.0767018220       17.1075497808
  H        17.2149306748        2.9020559738       24.5609715385
  H        17.0422713965        1.1231100255       24.3735974702
  C        18.0868552325        2.1272046834       22.7042805434
  S        11.9053153702        6.1646990786       11.5235586762
  C        11.7607515837        8.8469194832       11.0331259216
  H         6.7015956586       -0.6404140396       37.4394749196
  H         6.0706242964       -1.4859485590       38.8532749604
  H         6.4590651806       -2.4174589402       37.4805440373
  H         1.6501316264       -2.5787316887       17.8603168412
  H         3.0703884585       -2.8653660014       16.7679495879
  H         1.7187019924       -1.9052912284       16.2255957065
  H        19.0243712891        2.2484282985       23.1270925710
  H        17.7307723411        2.9718911338       22.1667721964
  H        18.0969515786        1.2035112225       22.1378138917
  C        12.3808477571        6.9094823602       10.0277201588
  N        12.3537165099        8.2898712850        9.9459578896
  O        11.4069331160       10.0360131444       11.1493663378
  S        12.8003055013        6.0479691783        8.5918669524
  C        12.6295120456        9.0059080920        8.7445888765
  H        13.0347206528       10.0173942353        8.9731519652
  H        13.4386276961        8.5775454839        8.1046417509
  C        11.3414216055        9.0686185049        7.8608532905
  H        10.6414201791        8.4230906693        8.4149628228
  H        11.1049470195       10.0649530178        7.5008742271
  H        11.5555046176        8.5340793569        6.9008666227
  H        20.6643837506       10.3984336987        3.8562961072
  C        21.6244956191        9.9454252674        3.6301570913
  H        21.5059372575        8.9341208599        3.6911616333
  C        22.5713397523       10.3683016875        4.7052209015
  C        22.0679368408       10.4046645717        2.2411750036
  C        21.8102078868       10.6862110112        5.9203771095
  H        23.2959519193        9.5768120938        4.9108003935
  H        23.1346513717       11.2556639023        4.5246451623
  H        21.8635123290        9.6714977769        1.4777174571
  H        23.1561386067       10.5029731821        2.1000790095
  H        21.6516200209       11.4125913575        1.9901623186
  C        21.0118227722        9.5048364264        6.3976589577
  H        22.4031149860       10.9967010408        6.7408823504
  H        21.1925500102       11.5768404965        5.7313911265
  C        20.4329684382        9.7251535399        7.8426313864
  H        21.6203111614        8.6147711149        6.3379931754
  H        20.1334476576        9.3732808994        5.7571735100
  C        19.2097131645       10.6797640015        7.8592540352
  H        21.1177516424       10.1395039689        8.5306501396
  H        20.1390796656        8.7917798076        8.2116038398
  C        18.0042618291        9.8302322778        7.3420966314
  H        19.0818652104       11.0538215819        8.8782651608
  H        19.3744202375       11.5326436472        7.2073488723
  C        16.7986091091       10.7505938398        7.1112682871
  H        17.8348096659        9.0461540668        8.0639317810
  H        18.2073582069        9.3380132514        6.3325767860
  C        17.0300927367       12.0874475011        6.4543545207
  C        16.3074433244       11.4830668514        8.3613271920
  C        15.5735709824       10.0149504929        6.3691703077
  C        16.8551959234       13.1750885436        7.2686072442
  C        17.3850086772       12.4558537353        5.1854247291
  C        16.3127382659       12.8129604513        8.5245959137
  C        15.8509614508       10.7755581804        9.4905733642
  H        16.0277491670        9.5499987084        5.4896817024
  H        15.1556266770        9.2201336298        6.9967310510
  C        14.3483807079       10.8374373047        6.1389906784
  S        17.2275702774       14.6854548949        6.5287544557
  C        17.5024143949       13.7972393078        5.0387510391
  H        17.5501294541       11.7389470542        4.4568219698
  C        15.8253350293       13.3715874266        9.6526272484
  H        15.7607052619        9.7004587295        9.2881022456
  C        15.3656603596       11.3371515594       10.6195550932
  H        14.5146657789       11.8664286022        5.8932693288
  H        13.8653947630       10.8542049489        7.0530400651
  C        13.4106589525       10.2274129269        5.1622071249
  C        17.9570763377       14.4998098311        3.7653250137
  C        15.2735556575       12.6808943499       10.7218485757
  H        15.8365978931       14.4737296213        9.8727017637
  C        14.9468186797       10.9515598943       11.8758741585
  H        12.6083729601       11.0140467559        5.1110554622
  H        13.0380415875        9.2933003824        5.4324732451
  C        14.0202804738       10.0260217190        3.7610760216
  C        17.9430343690       15.8655052629        3.4849578148
  C        18.6219625488       13.6258474617        2.7594694316
  C        14.9409657747       13.3225147423       11.9428712165
  C        14.7426982614       12.0011646946       12.6986695727
  S        14.7070821313        9.3855626782       12.6493623697
  H        14.7657194684        9.2483904287        3.7547841443
  H        14.5785232020       10.9660629097        3.5336258235
  C        12.9946228663        9.8883034621        2.6152177435
  N        17.5541723596       16.8188972336        4.3561914172
  C        18.3390720101       16.3803563100        2.2508802997
  C        18.9581001852       14.1045147575        1.5136573740
  H        18.8305971360       12.5588516421        2.9921809480
  C        13.6886188674       14.1678456256       11.9287480354
  C        16.1857975383       14.0790718822       12.5975450040
  C        14.5392203183       11.6491098764       13.9886046478
  C        14.4246401839       10.3013851170       14.1252327218
  H        12.5396177767        8.8982941818        2.6314068646
  H        12.0398020228       10.5186947626        2.6064015003
  C        13.5897866493       10.1717863606        1.1778372017
  S        17.7461200623       18.3035875023        3.6999884492
  N        18.1254806886       17.7708406286        2.2085852815
  C        18.6976540123       15.5755184212        1.2003223602
  H        19.4269205233       13.4716767028        0.8388024166
  H        13.8060088477       15.1057011949       11.3091162779
  H        13.4560696770       14.5435235541       12.9519630749
  C        12.3676884271       13.4967476832       11.5733159381
  H        16.3357298544       14.9609812624       12.0140567408
  H        15.8450639009       14.3478512572       13.5905277680
  C        17.4704596511       13.2210511373       12.7239849004
  H        14.4674653657       12.4223516086       14.6939914120
  C        14.0520459594        9.5329840188       15.4238375116
  H        14.4510016033        9.5605647627        1.1220933375
  H        13.9702936478       11.1690429478        1.0867753383
  C        12.5237601096        9.9356607505        0.1614885454
  C        19.0073533044       16.1829718498       -0.0327093172
  H        12.5164531517       13.1849182050       10.5572529909
  H        12.2330829943       12.6071003962       12.1977628439
  C        11.0945734702       14.2894023786       11.6115365109
  H        17.8302613261       12.9085666368       11.6937280818
  H        17.2825883638       12.2893911246       13.2658113744
  C        18.4615977032       13.9903817715       13.4678849748
  C        13.8562186561        8.1348239135       15.5221622425
  C        13.8071293973       10.2688708179       16.6525407012
  H        12.3798016052        8.8728251298        0.0323299518
  H        11.5810269871       10.3956552845        0.4121464282
  C        13.0310494009       10.5118395077       -1.1066939253
  H        18.9382721354       17.2246741708       -0.0434831487
  C        19.1933396854       15.7436151259       -1.2918995962
  H        11.1528912631       15.0779805836       10.8550055346
  H        10.8617773976       14.7851548470       12.5769464807
  C         9.8641534736       13.4384168327       11.3231374870
  H        18.8005966307       14.8294121820       12.7893787109
  H        18.0954855513       14.6868504420       14.3157322820
  C        19.6892286591       13.1988844798       13.8714673533
  N        14.0221485868        7.1971873313       14.5076184342
  C        13.5575326188        7.5761133290       16.7309719034
  C        13.4833921994        9.7394746098       17.8542900631
  H        13.9255893973       11.3326996827       16.6574544161
  H        13.4132240512       11.5334110918       -0.9876715111
  H        12.2340318586       10.4932013365       -1.8645924897
  H        13.8132895540        9.9681032404       -1.6039053335
  S        19.4961830565       14.1358110303       -1.6816924220
  C        19.3643737826       16.7577112033       -2.3590207245
  H         9.9159226460       12.6518198890       12.0978240336
  H         8.9188350997       13.9949360319       11.4071153883
  C         9.9750253625       12.9025536286        9.8694518172
  H        19.7961426865       12.3785203527       13.1420313394
  H        19.6310598194       12.7092433367       14.7428288506
  C        21.0765290569       13.8400146262       13.9169967036
  S        13.8389139574        5.6845024812       15.1612632055
  N        13.5177625301        6.1854428848       16.6999154292
  C        13.2810652561        8.2423500229       17.9860862882
  H        13.3985818434       10.2753663858       18.7831842129
  C        19.7643629068       14.7696162323       -3.3105790732
  N        19.8064774105       16.1758025981       -3.4554927252
  O        19.2661155190       18.0037966203       -2.1861677483
  H        10.3919246137       13.6445396726        9.2797144056
  H        10.5829769616       11.9987266448        9.9026074251
  C         8.6482141047       12.4066282058        9.2107314342
  H        21.8312873540       13.1710936982       14.1007759553
  H        21.3380585637       14.2163040800       12.9088556902
  C        21.2054512693       15.0028232210       14.9903833112
  C        13.0015813635        7.4775351885       19.1809333692
  S        20.1045711594       13.7433032841       -4.6927289992
  C        19.9296576236       16.8625801598       -4.7187937617
  H         8.9791610094       11.9839366701        8.2354083422
  H         8.1874651710       11.7057579121        9.9247897296
  C         7.7202105844       13.6446597715        8.8872483844
  H        21.4812646676       14.5906054100       15.9935636344
  H        20.2885271891       15.5349407483       15.1480529383
  C        22.2449165667       15.9789674909       14.5658665815
  H        13.5136524193        6.5622833802       19.3020887363
  C        12.3675922158        7.8873539824       20.3143802903
  H        20.6964826118       16.3795373529       -5.2967048085
  H        20.2064351524       17.9063270911       -4.5399862080
  C        18.5647404136       16.8152213298       -5.4434226231
  H         7.4272033086       13.4455241959        7.8361811353
  H         8.2916634879       14.5868074668        8.8086940916
  C         6.4416752330       13.7752985868        9.7204815011
  H        22.8547153328       16.3442463448       15.3996446452
  H        22.9915095592       15.4317859468       13.8935979532
  C        21.7441832649       17.2511529208       13.9516928406
  S        11.5472644911        9.4306968081       20.4931637491
  C        12.2549637861        6.8954933195       21.4212235807
  H        18.5403995085       17.6005919682       -6.1753725345
  H        17.7328152641       17.1078854892       -4.8235606185
  H        18.3614979442       15.7860614735       -5.7834040661
  H         5.6075613187       13.1642185547        9.3027428880
  H         6.5745443589       13.4299634272       10.7247731662
  H         6.1787945051       14.8331512065        9.7586313357
  H        22.5318126495       18.0054035657       13.8048628506
  H        21.1514373818       17.0543338498       13.1465070999
  H        21.0430309647       17.8147785306       14.6580799379
  C        11.1473791839        8.7858419990       22.0629389616
  N        11.5078832281        7.5028654275       22.3797038036
  O        12.6043798029        5.6996120246       21.3447394808
  S        10.8043417491        9.8482238780       23.3823572166
  C        11.3589849310        6.8256340694       23.6747662691
  H        11.1669010944        5.7499951026       23.5491149061
  H        10.4700574356        7.1443903411       24.1625960610
  C        12.4860931594        7.1863221705       24.7008344664
  H        12.1106904970        7.7936929909       25.5343436403
  H        13.3426067639        7.7100068250       24.2658142100
  H        12.9111327610        6.2074023237       25.0408765837
