352
 i =    72900, time =    72900.000, E =        24.8798292467
  H        11.9361060366        7.4806870542       32.4534770254
  C        11.9155638457        6.3954031140       32.2498277414
  H        12.7852069667        5.8878618819       31.8835957170
  C        10.6374315921        6.1987693394       31.3923291446
  C        11.6268098707        5.8047062393       33.6594408565
  C        10.8815781288        6.5572518890       29.9238455342
  H        10.1888727231        5.2610818453       31.4150205986
  H         9.8263922252        6.8462178790       31.7298262687
  H        10.8778990837        6.4773008076       34.1045254609
  H        11.2945468958        4.7950889303       33.8119739764
  H        12.5159627270        5.8826530508       34.2160470660
  C        10.3442224403        5.6709286921       28.8260045524
  H        11.9172045775        6.8309736110       29.6958102330
  H        10.3918088410        7.5449534661       29.8733287418
  C        10.4524714452        6.1979908341       27.3987521930
  H        10.7782026534        4.7157419198       28.8131106281
  H         9.2619352518        5.4581679116       29.0323534275
  C         9.5350270969        5.4235599702       26.4331656726
  H        11.5319232288        6.3373089640       27.1216987841
  H        10.2823818246        7.2339915003       27.4348842491
  C         8.2579009127        6.2397767974       26.1625396535
  H        10.0117329245        5.2828464094       25.4858819162
  H         9.4101611292        4.3335472040       26.7749426149
  C         7.2030680583        5.4342879826       25.3099665328
  H         7.7223464088        6.5398766877       27.0508044929
  H         8.4797158144        7.1387449098       25.6653978175
  C         6.9432171878        4.1500161169       26.0885257594
  C         7.7130433086        4.6645717315       24.1783169499
  C         5.9269725848        6.2267778266       25.0175654925
  C         7.2910892332        2.9769105950       25.4218109891
  C         6.4042316102        3.7921037757       27.3328337775
  C         7.7203109495        3.2942208500       24.1340884530
  C         8.2989553425        5.2584645606       23.0387182710
  H         5.6546744418        6.1983572961       23.9651947528
  H         6.2125547842        7.2630687191       25.2005759151
  C         4.7222866937        5.9689404344       25.9480088027
  S         7.0355331036        1.4875128254       26.2818516665
  C         6.4251913561        2.4662939636       27.6134048625
  H         6.1072807910        4.6383004156       27.9940808235
  C         8.1675059186        2.6153689151       23.0139353893
  H         8.2896307881        6.3321691526       22.9035747417
  C         8.7059469015        4.5842920264       21.9579552432
  H         4.4283203221        4.9142466083       25.9449135490
  H         5.0393169005        6.3358073628       26.9327253278
  C         3.4664062962        6.8342913426       25.6651954417
  C         6.0068387705        1.7545171205       28.9013645173
  C         8.6236652156        3.2431423659       21.8613079359
  H         8.0314256990        1.5773861638       22.8852065086
  C         9.1407176014        4.9936144836       20.7325610483
  H         2.8625561502        6.4661585862       24.8375086324
  H         3.7569197275        7.8366834319       25.3643029765
  C         2.7019238189        7.0292710084       26.9798075466
  C         6.0503206603        0.3715848651       29.1724449395
  C         5.4561342114        2.6519821120       29.9697938854
  C         9.1027490692        2.4902980639       20.5713545079
  C         9.4129042247        3.8618472365       19.9652808018
  S         9.3155380211        6.5322280054       19.9616748207
  H         2.0382804807        7.8366271949       26.8132568736
  H         3.3459098258        7.3942401212       27.7651927545
  C         1.8126942584        5.9663272665       27.3887449051
  N         6.3091092428       -0.6956888621       28.2752932319
  C         5.7644787629       -0.1402727594       30.4091593964
  C         5.1196034403        2.0811452984       31.1304930991
  H         5.4674176312        3.7020681623       29.8855535820
  C         7.8452703217        1.7598667260       19.9785698324
  C        10.3274453731        1.6221744578       20.6780892252
  C         9.6100047494        4.2688394464       18.6356422102
  C         9.7145184640        5.6411983608       18.5204676836
  H         0.9266572901        5.8853039127       26.7308121515
  H         2.4209630114        5.0485536924       27.3436362801
  C         1.2939979608        6.1196640178       28.8451023574
  S         6.3242822153       -2.1733794814       29.0177857179
  N         5.8899155557       -1.5450111953       30.5237646924
  C         5.2859731271        0.6342016303       31.4146172672
  H         4.7165631858        2.6922477103       31.8907183166
  H         7.3630625327        0.9169710607       20.5713206451
  H         8.2409557137        1.1311301339       19.1649866863
  C         6.6077781024        2.6775868641       19.7605402585
  H        10.5527686925        1.2040522391       19.7039589596
  H        10.1396336436        0.8111055347       21.3845486428
  C        11.5947418922        2.4646184938       21.1015552518
  H         9.7407142367        3.4570964240       17.8521604088
  C        10.0357101176        6.4339098528       17.2519352248
  H         0.6540087259        5.2623558340       29.1513551506
  H         0.6378169346        6.9534525524       28.8627932979
  C         2.4243373907        6.0390991442       29.9169433990
  C         4.9643517629        0.0158703371       32.6710868712
  H         6.7948680699        3.4149346117       18.9391372237
  H         6.4330747990        3.1714014253       20.6611484331
  C         5.2476424573        1.9622679387       19.4321735322
  H        11.2905954928        2.9784566177       22.0577822113
  H        11.8174462443        3.2903828056       20.4706826175
  C        12.9652326746        1.7427109192       21.3089275279
  C        10.0751824814        7.8620167425       17.1351750920
  C        10.3457537737        5.6285665531       16.0353004223
  H         3.2086070093        5.3072924708       29.8232141939
  H         2.9075030056        6.9762528892       30.0813321311
  C         1.7008283506        5.6958510105       31.3015133662
  H         4.9502655475       -0.9980197571       32.5877684823
  C         4.7539040334        0.4592984766       33.9583097005
  H         4.3983236768        2.6118390750       19.6454980137
  H         5.1307765390        1.1365548145       20.1161882916
  C         5.0605667565        1.5319950165       17.9918888114
  H        12.9690807768        1.2011179856       22.2701839627
  H        13.1210526946        1.0344716774       20.5458792848
  C        14.0924749065        2.8498255121       21.4212970899
  N         9.7922336417        8.8339216091       18.1133933356
  C        10.2763760632        8.4584188737       15.9148398479
  C        10.5834252425        6.2649037146       14.9086820449
  H        10.3427517078        4.5826991770       16.0306108829
  H         1.8601754078        6.4512698318       32.1657269167
  H         0.5745060754        5.7513459250       31.2138269514
  H         1.8687194653        4.6913717881       31.7077715008
  S         4.5741539623        2.0700643603       34.4691152172
  C         4.6337936262       -0.5162267025       35.0444177035
  H         5.1931885924        2.3374216514       17.2544588250
  H         5.8378712690        0.7623368283       17.7761357890
  C         3.6626013198        0.9445172483       17.7962413276
  H        13.8135198629        3.6883709687       22.1079242951
  H        14.1127371005        3.3147070194       20.4526195484
  C        15.4899231064        2.2952531283       21.8700215460
  S         9.5882089398       10.2992396632       17.5080020688
  N        10.0932577605        9.8161631846       15.9852057015
  C        10.5123172293        7.7950411819       14.6861273057
  H        10.8114797541        5.7431336834       13.9656942731
  C         4.3883704718        1.4505755705       36.0823104950
  N         4.3168862802        0.1305443989       36.1603215739
  O         4.7594214567       -1.7429257196       34.9202370945
  H         3.4879343064        0.8350592290       16.7323087855
  H         2.8957037920        1.7016915989       18.0357733807
  C         3.3633085734       -0.3661096232       18.5466109737
  H        15.4078980034        1.1818103217       21.8659412366
  H        16.2845266181        2.4951330271       21.2030794167
  C        15.9362624245        2.9928595665       23.1873187604
  C        10.8395926886        8.5124555002       13.4503183610
  S         4.1336071645        2.4534813669       37.4618256950
  C         4.3171674270       -0.6116286465       37.4236725651
  H         4.2494119266       -0.9370481954       18.4318728177
  H         3.2767095605       -0.3173067298       19.6637024561
  C         2.2351619923       -1.2898226095       17.8830547423
  H        15.0472727775        3.2478170070       23.7990842938
  H        16.3502646637        3.9765866497       22.9417482696
  C        16.9257998342        2.1617450568       23.9061822203
  H        10.8237606478        9.5342168718       13.6377310485
  C        11.2465792415        8.1484397841       12.1845059233
  H         3.5232714987       -0.1245244931       38.0532187873
  H         3.9553851145       -1.6455855428       37.3656087659
  C         5.6655880473       -0.8911695396       38.1063384650
  H         1.2448793140       -0.7960235420       17.7986659349
  H         2.0387765707       -2.1858436727       18.4170920908
  C         2.7815306486       -1.8182389317       16.5246414707
  H        17.0894992428        2.7617069130       24.7606475799
  H        16.5702297553        1.1996129206       24.1650621056
  C        18.2745521206        2.1011536802       23.1891869226
  S        11.8710564545        6.6169862684       11.6781721968
  C        11.4670855036        9.2643109686       11.2745947459
  H         5.8555463424       -1.9706731039       38.1889360038
  H         6.5125212039       -0.3482925980       37.7381023954
  H         5.7063627589       -0.5601858901       39.1540815647
  H         3.8432212736       -1.6983072092       16.4554446505
  H         2.2976616543       -1.4046975595       15.6063296192
  H         2.4117901388       -2.8355102178       16.4865826107
  H        18.3548006788        2.7874160683       22.3665633843
  H        18.6645074470        1.1718327930       22.6977600575
  H        19.0079718916        2.2614346305       23.8725593740
  C        12.2743565035        7.4170495150       10.2052947463
  N        12.1084847546        8.7859439447       10.1988625462
  O        11.1310492709       10.3829990354       11.4296544087
  S        13.2710291942        6.6610151564        8.9738964554
  C        12.1331433202        9.6885319879        9.0063453338
  H        12.3702399395       10.6951154893        9.1909822949
  H        13.0142964294        9.3975131358        8.4326689531
  C        10.8683144036        9.7985699960        8.1975570692
  H        11.1732838915        9.7791768042        7.1325535097
  H        10.0949789284        8.9294618517        8.3741530114
  H        10.3414904512       10.6963934981        8.4652504623
  H        21.3201651043       11.6744680702        2.5532658546
  C        21.6361315192       10.6364975051        2.5760201141
  H        20.8141737299        9.9871340653        2.6972979636
  C        22.6288989358       10.5124370196        3.6909962264
  C        22.3225070786       10.1927309059        1.2608161785
  C        22.0023978045       10.6903927982        5.0456890666
  H        23.1009176486        9.5682296934        3.8109011123
  H        23.3677572178       11.2803885451        3.5694717857
  H        21.8644902515        9.2763510045        0.9937343039
  H        23.4430107292       10.0236497610        1.4251554913
  H        22.0613823464       10.8263295193        0.3966349365
  C        21.3293045038        9.4281247971        5.4800394264
  H        22.7998654206       10.8849340885        5.7641794729
  H        21.2919540594       11.4847119436        5.0063216140
  C        20.4138006486        9.7302616330        6.7086353766
  H        22.0709741491        8.6791804230        5.6436642234
  H        20.6974363435        9.0639825848        4.6484154309
  C        18.9352004077        9.7978038302        6.2442738640
  H        20.7391628790       10.6182522639        7.1991083328
  H        20.6379328742        8.9424080535        7.4667719405
  C        17.9172392407       10.0654279876        7.3325726942
  H        18.8316490387       10.4701814198        5.4548302638
  H        18.6732950976        8.7509464555        5.8988048532
  C        16.6550701956       10.8850925258        6.8078538621
  H        18.4991558436       10.5172751298        8.0530984418
  H        17.5480233142        9.0555807836        7.6624148756
  C        16.9919927990       12.2422877775        6.1656761342
  C        16.0620422922       11.5410813983        8.0235379201
  C        15.6140976422       10.0218154000        6.0245463040
  C        16.7601330549       13.3015904433        7.0054705094
  C        17.4615789977       12.6602394085        4.9232822199
  C        16.2505798978       12.8708547484        8.2036991465
  C        15.6096136856       10.8176558486        9.1287027701
  H        16.1310372677        9.6868751427        5.1664279887
  H        15.3163384127        9.1660940346        6.6739413001
  C        14.3984923292       10.8693348742        5.5570824653
  S        17.1494917642       14.8404450015        6.3913440397
  C        17.6060735541       14.0408182084        4.9263427868
  H        17.5963562170       11.9306392718        4.1277356733
  C        15.8576987735       13.4290212013        9.4326410620
  H        15.4590760307        9.7332273440        8.9634107257
  C        15.2228358069       11.4129068178       10.2815643287
  H        14.7782497105       11.7185198467        5.0550296065
  H        13.8708825474       11.1788658980        6.3963228903
  C        13.4154131301       10.2585022368        4.5919268905
  C        18.0365634784       14.8372733459        3.7371026749
  C        15.2845547964       12.7185008402       10.4755302020
  H        16.2297751226       14.3999272760        9.5626268417
  C        14.8478190139       11.0060537900       11.5365901464
  H        12.5473906495       10.9315398865        4.5681431651
  H        12.9039119150        9.4312752962        4.8740094246
  C        13.9660837603        9.8944241989        3.1634130665
  C        18.0741598979       16.2199059866        3.5472693089
  C        18.5652629859       14.0442529312        2.5521420208
  C        14.9734067998       13.4227698940       11.7730228443
  C        14.6295993599       12.0464381602       12.4215090063
  S        14.5907815645        9.5096484166       12.2732033910
  H        14.6338283869        9.0030066869        3.2227452226
  H        14.5849613767       10.7288488163        2.8023070172
  C        12.8488619889        9.5504970730        2.0825109741
  N        17.8332507054       17.2344777603        4.5131750880
  C        18.3212885708       16.7902313999        2.3003220707
  C        18.7736813515       14.6222725493        1.2963884805
  H        18.6718765072       12.9897278698        2.7012050226
  C        13.6490570934       14.1731688045       11.7449748326
  C        16.1735564577       14.0833368332       12.4066751908
  C        14.2943661838       11.6958216059       13.6767314718
  C        14.1253779149       10.2990659848       13.7692823065
  H        12.0319964719        8.9105127358        2.5654825804
  H        12.2301891876       10.4501445707        1.9483370343
  C        13.3670509464        8.7844600708        0.9136892638
  S        17.8093188710       18.7064531012        3.8504614979
  N        17.9973589354       18.1980518409        2.3339169950
  C        18.6906263662       16.0449096380        1.1222500628
  H        19.0735969505       14.0176054527        0.4786476070
  H        13.8151746576       14.9489183477       11.0504737962
  H        13.4617805229       14.6231516330       12.6376036551
  C        12.4209019290       13.3398523495       11.2485569798
  H        16.3523514248       14.9510210323       11.8237106363
  H        15.9252520754       14.4761066482       13.4319236153
  C        17.4573619501       13.2375689331       12.5080693135
  H        14.1882770826       12.3764780402       14.4501357015
  C        13.8429374795        9.5699933096       14.9959618983
  H        12.6774578753        8.0153761896        0.6734678927
  H        14.3379086462        8.3521829826        1.1344341137
  C        13.6472069656        9.8355487596       -0.2672093389
  C        18.9725365299       16.8468008020       -0.0659555532
  H        12.5597804924       12.8345555378       10.2909796592
  H        12.1554382490       12.6597390115       12.0310342545
  C        11.2642003094       14.3001935753       10.9323231963
  H        17.9310687199       12.8863566008       11.5838040484
  H        17.2623571734       12.4172479403       13.0476733230
  C        18.5914771296       13.9793654370       13.1893026807
  C        13.9117764904        8.1691338932       15.2111870083
  C        13.6572027789       10.3917316284       16.2470023849
  H        13.9077929695       10.7989432216        0.2140466104
  H        14.6238929190        9.5312325721       -0.8250130349
  C        12.4717135727       10.0402264912       -1.2387247805
  H        18.7040121208       17.8467256575       -0.0367358072
  C        19.2963603111       16.4146355020       -1.3478906576
  H        11.4627329998       14.7975397815        9.9860233629
  H        11.1048475682       15.0047455318       11.7938674510
  C         9.8894369043       13.4896004817       10.8046918716
  H        19.1560050318       14.5642720022       12.4674734930
  H        18.0778989933       14.7616496109       13.7848715319
  C        19.5745769974       13.1463487159       14.0707373228
  N        14.0920771741        7.1598951240       14.2602990487
  C        13.6676404561        7.5861824484       16.4559066224
  C        13.3592941019        9.8254782737       17.4155881396
  H        13.7777956824       11.4549518101       16.2320069377
  H        12.8066362374       10.1428390382       -2.2295440306
  H        11.8532132752       10.9000839631       -1.0069312458
  H        11.8396209052        9.0868325812       -1.3042608230
  S        19.2745812650       14.8668619044       -1.8596066325
  C        19.5095982996       17.4035435139       -2.4218862616
  H        10.0681413604       12.6303677819       10.1929062071
  H         9.6841800294       13.1682998207       11.8261768620
  C         8.8195121290       14.2004659959       10.0791892984
  H        19.9620769182       12.4231028766       13.3638669444
  H        19.0932759668       12.4944450275       14.7749849701
  C        20.5601475725       13.9861242289       14.8579077236
  S        13.9569151208        5.7116772642       14.9624769636
  N        13.6720035011        6.1804939585       16.4603568969
  C        13.4222425627        8.3388715261       17.6206285386
  H        13.2475577876       10.4335317044       18.3226064900
  C        19.5155679938       15.4232256349       -3.4542437689
  N        19.6039303037       16.7357015417       -3.6080226319
  O        19.4745789788       18.6553903881       -2.2643736199
  H         8.1362019923       14.6302348839       10.8245437584
  H         9.1811661292       15.1218526853        9.6036480707
  C         8.0793741089       13.3893222512        8.9943019634
  H        20.0460152156       14.6590101005       15.4825282999
  H        21.1368747335       13.3261485424       15.4722665061
  C        21.6107262126       14.7002208287       13.9088994176
  C        13.1834299176        7.6832606798       18.8440489714
  S        19.9171004099       14.3925593710       -4.8232473183
  C        19.7211723899       17.3454784098       -4.9383142076
  H         8.8336377084       13.0949270484        8.2683816441
  H         7.8451250792       12.4462061672        9.4761555446
  C         6.8125089372       13.9587716300        8.3664715486
  H        21.1729645719       15.0284010726       12.9580645303
  H        22.5004325848       14.1917977257       13.6613371068
  C        22.2229609846       16.0061589466       14.5189199034
  H        13.3503708244        6.5965176319       18.8879836706
  C        12.6914355991        8.1070869280       20.0120160762
  H        20.4770291138       16.9197313605       -5.6267572649
  H        20.0683404483       18.4055359187       -4.8336844245
  C        18.3384965667       17.3745112957       -5.5785280434
  H         6.6208727772       13.3509130963        7.5062441197
  H         7.0025021705       14.9712123275        8.0048645710
  C         5.5774841879       13.9274084377        9.2353547122
  H        22.4672697258       15.7655437513       15.5787454186
  H        23.1615596427       16.2854378099       14.0284455760
  C        21.2913712033       17.1342016216       14.7574291063
  S        11.9723392043        9.6968128872       20.3488614687
  C        12.5249663459        7.0551024453       21.0997191841
  H        18.2817433520       18.1742709823       -6.3156269589
  H        17.4955522035       17.5789184822       -4.9609929923
  H        18.0407418824       16.5583743594       -6.2041411707
  H         5.0986494330       12.9554527575        9.5260909562
  H         5.7704926545       14.4307963211       10.2225377736
  H         4.7519554602       14.4560790884        8.8072780122
  H        21.7094094718       17.7852387505       15.6033821222
  H        21.2559435119       17.8202831524       13.9157739197
  H        20.2770578190       16.8848820156       15.1023824309
  C        11.7296995541        9.0330212181       21.9691009054
  N        11.9795532752        7.7044513218       22.1438674730
  O        12.8419624090        5.8547357680       21.0585250906
  S        10.9184305110        9.9125606087       23.1740059887
  C        11.7901565083        6.8816481925       23.3526467192
  H        11.5353380695        5.8496290218       23.1533016795
  H        10.8374228875        7.1315628775       23.9264083625
  C        13.0292478221        6.8815242004       24.2605497458
  H        13.4906994965        5.9172149250       24.4695259805
  H        12.8689879197        7.3157642326       25.2887474774
  H        13.7821231012        7.6131031558       23.9136587909
