352
 i =     1600, time =     1600.000, E =        48.3301079581
  H        11.6223015050        7.0316491874       32.3567864762
  C        11.2748753129        5.9686539785       32.3145796564
  H        12.3302767996        5.4342512493       31.9803231434
  C        10.3463522458        5.6688976992       31.1896305694
  C        10.8980582760        5.5429979872       33.7177642543
  C        10.9663916647        5.7815609860       29.7743997076
  H         9.9293348595        4.6218957688       31.0886603858
  H         9.3844577002        6.1861290663       31.3940166375
  H        11.0233902606        4.4827609324       33.9825879304
  H        11.3229565623        6.2251974413       34.4960875071
  H         9.8149344835        5.8063696104       33.6250979241
  C         9.8149469348        5.8281242783       28.7196064322
  H        11.7835477888        4.9620610369       29.6701185132
  H        11.6635729325        6.6686775726       29.7525733545
  C        10.3438874127        5.9060969907       27.3441262950
  H         9.1326185210        5.1242881060       28.9486437758
  H         9.2868086258        6.7934073761       28.9364307789
  C         9.5346029503        5.1128463381       26.3677536153
  H        11.2430992594        5.4016299169       27.2803429879
  H        10.4472451651        6.9116873429       26.9905013099
  C         8.2390021544        5.9087225724       25.9900381475
  H        10.0371711082        4.9030803185       25.4095703852
  H         9.3763917485        4.1734826505       26.7917218068
  C         7.0837360123        5.0750959173       25.3622150964
  H         7.7313510985        6.3018417247       26.9143649865
  H         8.5018322731        6.7574705535       25.3370721557
  C         6.7919776403        3.7693043821       26.0359838936
  C         7.5173425050        4.4080364002       24.0934260445
  C         5.8979650281        5.9694284392       25.1769457696
  C         7.0937353207        2.7049218081       25.2358421596
  C         6.4332791930        3.3675541006       27.2878679839
  C         7.5898509600        3.0784530046       23.9632195159
  C         8.1271917666        5.0913128128       23.0382715233
  H         6.2800467824        6.7972378144       24.5822142858
  H         5.6486044327        6.4481272681       26.1239790624
  C         4.7294907952        5.1674510417       24.5806065179
  S         6.7516601626        1.1828995022       26.0406061928
  C         6.3342509398        2.0234918910       27.5044370776
  H         6.2741695356        4.1765621837       28.0039198935
  C         8.1805535843        2.4629528792       22.9209106229
  H         8.0106043637        6.1299268723       22.9952070611
  C         8.5781825388        4.4520980662       21.9048405279
  H         4.8706516352        4.7296784447       23.6049204785
  H         4.4649723316        4.4149496361       25.3584842313
  C         3.5038774827        6.0886438282       24.3500329475
  C         5.8512618992        1.3892944896       28.7964228090
  C         8.6382350947        3.1351778621       21.8179502954
  H         8.2012947160        1.4523540310       22.9021421721
  C         8.9655542392        4.9249767156       20.6489827884
  H         2.8115068784        5.5247043525       23.6914835431
  H         3.8395515875        6.8178853243       23.6146405535
  C         2.8006146336        6.4336889289       25.6714587363
  C         5.7672680139       -0.0299439261       29.0262474371
  C         5.3970631244        2.2490199970       29.9723497731
  C         9.0155154109        2.4251691433       20.4759424155
  C         9.3361400529        3.7831659430       19.8889448529
  S         9.2475225024        6.4282066844       19.8946776268
  H         2.2668222475        7.3221830172       25.4794577064
  H         3.6812135194        6.7727823229       26.1620827076
  C         2.1813651728        5.2547165024       26.3251628900
  N         6.1070539105       -0.9558313833       28.0981598795
  C         5.4813555986       -0.5294359623       30.2823007973
  C         5.0456994408        1.6298682157       31.1988566455
  H         5.4798998192        3.3087089266       30.0436085698
  C         7.8107398990        1.6807526389       19.9034937852
  C        10.3025746101        1.6366789391       20.4790577446
  C         9.8735631602        4.2382157538       18.6711657053
  C         9.7915352042        5.6101554912       18.4979451764
  H         1.4740677922        4.6962832580       25.7275449289
  H         2.8220628717        4.5299464637       26.5730110064
  C         1.3891645860        5.6675494870       27.6073982365
  S         5.9557769074       -2.4009075889       28.8393717807
  N         5.2755743978       -1.9293200226       30.2443712401
  C         5.0980266378        0.2037661038       31.4896106342
  H         4.7848152433        2.2032409207       32.0587052921
  H         7.5371776013        0.9586184048       20.6099689041
  H         8.2061142740        1.1670394139       18.9890854438
  C         6.6508868804        2.6078334944       19.3351541359
  H        10.7260177317        1.3499522195       19.3786565874
  H        10.0543286025        0.8083226088       21.1205548580
  C        11.5246595204        2.3058536951       21.1621675203
  H        10.0656583752        3.4941959939       17.9146126664
  C        10.1686274667        6.3604138331       17.2833073379
  H         0.5017204201        5.0188401742       27.6200358102
  H         1.1649922504        6.6681710301       27.5104633809
  C         2.1219789140        5.3395371836       28.8774468662
  C         4.8450405095       -0.4523966016       32.7491175676
  H         7.1175694390        3.3835115300       18.7264143122
  H         6.1306081369        3.2145673068       20.0354859651
  C         5.7764857606        1.6762653893       18.6627866464
  H        11.1537395344        2.7004808299       22.0983221318
  H        11.8554927665        3.0669547036       20.3441485584
  C        12.7211419551        1.4073298675       21.4823543631
  C        10.0674794163        7.7763064131       17.0832651657
  C        10.3935825023        5.5639139411       16.0309709962
  H         2.2998705042        4.2686528933       28.7704172027
  H         3.1431995577        5.8748766635       29.0257420274
  C         1.0785266619        5.5258946266       30.0407798671
  H         5.2214172965       -1.4844286804       32.6726886808
  C         4.6107101017       -0.0397293363       33.9943745864
  H         5.4848859911        0.9559115491       19.4120524204
  H         6.2742099233        0.9480983305       17.9819750338
  C         4.5694546730        2.3232652766       18.0265342317
  H        12.5733437863        0.7975685989       22.3531528692
  H        12.7775534245        0.6890308859       20.6777287761
  C        13.9313194839        2.2770503650       21.5611110277
  N         9.6905343435        8.6059131352       18.0228312089
  C        10.3000471844        8.3370892859       15.8683327929
  C        10.7655857027        6.1724007083       14.8098367695
  H        10.3445043602        4.5241823326       16.0965804979
  H         1.2396868069        5.0784483327       30.9379073810
  H         0.7972635692        6.5032371890       30.1886308332
  H         0.0746511353        5.2561243551       29.6269228768
  S         4.1376869722        1.5820590073       34.3571878795
  C         4.6973986266       -0.9914623215       35.1312565480
  H         4.6053628854        3.3836223828       18.4253691879
  H         5.0830739078        2.3202454040       17.0578559279
  C         3.3388108226        1.3820648254       18.3884474416
  H        13.5955660858        3.2467842321       22.0538801576
  H        14.3308320377        2.4167702768       20.5558126687
  C        14.9905768171        1.5256674940       22.3974734158
  S         9.8302506771       10.1763231907       17.4381129626
  N        10.4855903612        9.6877654850       16.0093542787
  C        10.7815957638        7.6393694115       14.6314816804
  H        10.9795766281        5.4972296179       13.9012228324
  C         3.9088482566        0.9027337557       36.0403973562
  N         4.2040325131       -0.3827578996       36.2329033876
  O         4.9992905637       -2.2052940719       35.0106059608
  H         2.4560389554        2.0145813190       17.9380814167
  H         2.9468959747        1.2063394439       19.4349764728
  C         3.2249146773       -0.0409344980       17.7033713198
  H        14.5636917741        0.7915067581       23.1050052327
  H        15.7205455138        1.0871935204       21.6849751311
  C        15.9215441505        2.4789742859       23.1973924863
  C        10.8980071119        8.4534564312       13.4944603975
  S         3.3779321704        1.9023647516       37.4233820239
  C         4.1597631964       -1.0683559329       37.4620148104
  H         3.3610209884       -0.0498445275       16.5839095529
  H         4.0916339175       -0.4657492921       18.0150578178
  C         1.9327753028       -0.7924811682       17.9560376246
  H        15.5278614711        2.7464923089       24.1725202838
  H        16.1044098712        3.4062202981       22.7561135188
  C        17.3289425318        1.9395224749       23.3853989852
  H        10.8449819423        9.4541643148       13.5478377190
  C        11.5190962142        8.2366577908       12.2866574715
  H         3.2007806196       -0.9516607668       37.9090040153
  H         4.3417691742       -2.1075152523       37.4204503015
  C         5.3902585373       -0.7920199267       38.3517451440
  H         1.1527571439       -0.4268756578       17.3401623585
  H         1.5771514505       -0.5396299442       18.9349432680
  C         2.0205072732       -2.2518531791       17.6233489918
  H        17.6363886692        2.4375196395       24.1856567643
  H        17.3974153373        0.8602451036       23.5486330822
  C        18.2656253071        2.3638182234       22.2000938762
  S        12.3586156540        6.7826374228       11.8285993105
  C        11.7057479601        9.3720819113       11.3654875580
  H         5.4151997844       -0.2429744865       39.3082917573
  H         5.9397341662       -1.7588551982       38.6308204866
  H         6.0687882655       -0.3313203559       37.6679603079
  H         1.5978318015       -2.8516846513       18.3646828537
  H         3.0071318615       -2.6579786720       17.5495442590
  H         1.6613316590       -2.4370975334       16.6154161635
  H        17.6013075530        2.3136641957       21.2005964338
  H        19.0172160328        1.6144890102       22.1148234146
  H        18.8890463210        3.1609580418       22.3287815582
  C        12.6499160310        7.5858256779       10.2753195247
  N        12.3644021926        8.9700473328       10.2929556474
  O        11.2003501704       10.4472221643       11.5417720548
  S        13.3914420562        6.9613176819        8.8310630873
  C        12.3958793433        9.8071523932        9.1870146652
  H        12.7666412390       10.7498715769        9.4298399623
  H        13.2063297099        9.6247727700        8.4486053389
  C        11.1026525093        9.9377805992        8.4046392144
  H        10.8234465244        8.9030777198        8.0541448984
  H        10.1877793738       10.2018301694        8.8869529402
  H        11.1360964205       10.6141976953        7.6035065035
  H        21.4416401888       11.3024335261        3.3981234644
  C        22.0133177986       10.5352060869        3.4977243972
  H        21.3351900150        9.8212744849        3.3748279623
  C        22.8851267125       10.4861852090        4.7951360395
  C        22.9603535941       10.6061148651        2.2265023536
  C        22.1240532423       10.8233829174        6.1049580531
  H        23.4449624837        9.5418450532        5.0348623893
  H        23.6836379427       11.1661945840        4.8352913413
  H        23.8994846249       11.1558396443        2.2832003786
  H        22.4165729178       11.0974700253        1.4583943099
  H        23.1407588375        9.5492143883        1.9660207530
  C        21.3311967942        9.5172141118        6.6079573421
  H        22.8789979264       11.1033748380        6.9165053459
  H        21.4409824250       11.7520598266        5.8488427103
  C        20.4109446481        9.8398033900        7.7758420837
  H        22.0189911591        8.7342054527        6.7799790430
  H        20.7447116121        9.2014287399        5.7108166660
  C        19.2283919443       10.8020520022        7.6237492744
  H        21.0067012311       10.4953845347        8.3775440703
  H        20.2437749257        8.9856561596        8.4511020867
  C        18.0920902184       10.1914183999        6.7904120847
  H        18.9280075439       11.1349861946        8.5134916272
  H        19.6663797050       11.6506810406        7.0019027146
  C        16.7660274806       10.9485574695        6.8198079716
  H        17.9539517386        9.0646168683        6.9595932803
  H        18.3578643516       10.2095901778        5.7899881600
  C        17.0896461861       12.2599504853        6.2042204709
  C        16.2380422632       11.6369126410        8.0861944997
  C        15.6187463692       10.1957523220        6.1412925462
  C        16.8445827047       13.3481872979        7.0188437873
  C        17.5446185877       12.6357443793        4.9659808336
  C        16.2944642293       12.9808195567        8.2272336390
  C        15.8355474192       10.9993494121        9.2388980006
  H        16.0095355537        9.8714346732        5.1047286592
  H        15.2188582006        9.4042832527        6.7777242386
  C        14.3299176171       11.0397405193        5.7756961377
  S        17.2453664940       14.8512433904        6.2316614424
  C        17.6713002116       14.0065574649        4.7965441618
  H        17.7590445699       11.8682698207        4.2288421255
  C        15.8357704117       13.5424745902        9.3966592364
  H        15.7495456424        9.9679296379        9.1723245108
  C        15.4472809625       11.6276869188       10.3443868203
  H        14.6261898760       11.9874899125        5.3238960124
  H        13.7379591399       11.2036432543        6.6813616112
  C        13.3119301047       10.1898509168        4.9743736758
  C        18.1198840764       14.7346329066        3.6049752677
  C        15.4395986789       12.9089608778       10.5060928428
  H        15.8059581959       14.5145645778        9.4396594975
  C        15.0732727803       11.1840998250       11.6478075732
  H        12.3527202510       10.3094943708        5.3190979065
  H        13.3851229887        9.1207129482        4.8990372115
  C        13.3723725942       10.6893280190        3.5190442072
  C        18.0270808334       16.1087586514        3.3399507816
  C        18.6125806082       13.8571085931        2.4628323776
  C        14.9646282165       13.6307514602       11.7284233535
  C        14.6603122728       12.2828006770       12.4243876035
  S        14.8614492507        9.7314754809       12.5870497159
  H        14.3778234455       11.1942978430        3.3238016035
  H        12.6710252918       11.5211161822        3.5233102906
  C        13.1039296155        9.6498063398        2.4118712952
  N        17.7156004735       17.0467789622        4.2469524835
  C        18.2179620766       16.6375751382        1.9986246627
  C        18.7930015582       14.4165059801        1.1583724028
  H        18.8571803499       12.8029549460        2.4773417091
  C        13.7574386978       14.4983516376       11.3885081366
  C        16.0147801784       14.4461014910       12.3552880636
  C        14.1728081538       11.9158880536       13.6682808561
  C        14.2861041309       10.6164285246       13.9200188206
  H        13.6343269201        8.6443729281        2.5561075822
  H        12.0398734714        9.6022578398        2.1193417674
  C        13.5219823519       10.2317295213        1.0448414331
  S        17.6067051713       18.5028236925        3.5837590709
  N        17.9506101677       17.9936458670        2.0622040130
  C        18.5858614482       15.8778372955        0.8433158870
  H        19.1500663575       13.7188946125        0.4121146985
  H        13.8070751075       15.1044179852       10.4123975402
  H        13.7191975333       15.3781465148       12.0289158728
  C        12.4340761417       13.6343958907       11.4188144408
  H        16.4089200062       15.2354297288       11.6905824172
  H        15.5801712991       15.0167430928       13.1992062685
  C        17.2719654815       13.7064501899       12.9162811612
  H        13.9632370857       12.7170500860       14.3189991667
  C        13.9871158487        9.9697621257       15.2644348286
  H        14.5798498580        9.8358291182        0.8378628593
  H        13.5518989533       11.3291176910        1.2171257484
  C        12.3883269880        9.9399711261        0.0295171466
  C        18.8558943208       16.5039849512       -0.3464111234
  H        12.7230843840       12.7993187369       10.8868328943
  H        12.1563846663       13.3764485191       12.4075053667
  C        11.2130139835       14.3736608848       11.0045907313
  H        17.5605219234       13.1111184817       12.1885323161
  H        17.0832508772       13.0563709831       13.6984306250
  C        18.3649656463       14.6627189727       13.3736108816
  C        14.0017715444        8.5900953153       15.4455915878
  C        13.5867889782       10.8236825442       16.3881884300
  H        12.1664795451        8.8266063392       -0.1022737627
  H        11.5374677353       10.5298817608        0.3128012130
  C        12.7758784959       10.4611886637       -1.4058845757
  H        18.6951638053       17.5183927259       -0.3453719943
  C        19.1647581495       16.1708154600       -1.6109665789
  H        11.5980161237       15.1726612057       10.2990055592
  H        10.8225574585       14.7521934596       11.9240678805
  C        10.2959129832       13.4707318963       10.2051531119
  H        18.7001179626       15.0747608622       12.4033991833
  H        17.9463633871       15.5967486512       13.7552449378
  C        19.4446760113       13.9678389470       14.1217808456
  N        14.2141555052        7.7119552342       14.3839937041
  C        13.6933617374        7.9765019691       16.6718285536
  C        13.3770664660       10.1992183876       17.5984303505
  H        13.4869139134       11.8809963955       16.3486885502
  H        12.0201702040       10.3711768542       -2.1102576912
  H        13.5789747404        9.8785914311       -1.8532544328
  H        12.9207770518       11.5036427436       -1.3392294758
  S        19.5675727010       14.4673128688       -2.0416478451
  C        19.1288340994       17.1411281454       -2.6555303592
  H        10.7225817825       13.4336466196        9.2067201858
  H        10.2910013518       12.6213243721       10.7886615683
  C         8.8724876541       14.2156809199       10.0462319934
  H        19.6747048313       12.9751056585       13.6386871050
  H        19.1198693964       13.6545687453       15.0894125932
  C        20.7768849395       14.5893017604       14.0618003467
  S        14.2079320698        6.1846527810       15.0934333045
  N        13.6985977845        6.5634228629       16.6244477326
  C        13.1984188358        8.7332870808       17.7816016445
  H        13.0609272768       10.8359808031       18.4160093290
  C        19.7700454564       15.1507217220       -3.6600572242
  N        19.4469850766       16.4818818791       -3.8075407749
  O        18.9965825220       18.3943464093       -2.4780122448
  H         8.5672633460       14.4546356676       11.1277199900
  H         9.0496928674       15.1892215310        9.7306809798
  C         7.8601910405       13.3103208724        9.3307839817
  H        21.4749448473       13.9522918320       14.5952877893
  H        21.0627975977       14.6289367368       12.9999897892
  C        20.7993747338       15.9373162391       14.7764213962
  C        13.0595839933        8.0968759185       19.0182274258
  S        20.2483534056       14.2211458430       -5.1069646357
  C        19.5859258954       17.3091270310       -5.0669109115
  H         8.2011542550       13.0720162809        8.2800835818
  H         7.8027935191       12.4390165973        9.9291173246
  C         6.4621546170       14.0237142717        9.2628062511
  H        21.1040437127       15.8106083641       15.6506175195
  H        19.9003609704       16.2736470581       14.9067281061
  C        21.6230836336       16.9439387344       14.1267527154
  H        12.9647468278        7.0078335109       18.9273245803
  C        12.2929429665        8.3882895496       20.0935212513
  H        20.3448727157       16.8518919853       -5.7286901930
  H        20.0331063863       18.3592118400       -4.7370800173
  C        18.2606965984       17.4315275180       -5.7294700967
  H         5.9122295629       13.5317868476        8.5024382839
  H         6.5768744522       15.0235318143        8.8047382540
  C         5.7511752463       14.0532899147       10.5314602446
  H        22.5249262620       16.5300826961       13.6539387440
  H        21.2830876391       17.4755669980       13.2203132034
  C        22.2777038634       18.1263104248       14.9863250996
  S        11.6701991024        9.9655236741       20.5107425732
  C        12.1533022209        7.3097840342       21.2208600620
  H        18.0909265213       18.5806108982       -5.6882528487
  H        17.5157483845       16.7488836922       -5.2746811441
  H        18.3306516353       17.1501944758       -6.8011734458
  H         4.7198285273       14.4458830585       10.4768421692
  H         5.5462105062       13.0876715243       11.0716081766
  H         6.2119650567       14.6469777318       11.1550193777
  H        22.0763168045       19.1052084947       14.4272816065
  H        21.8225211510       18.1690025813       15.9988074384
  H        23.3927079127       17.8272807444       15.1540771855
  C        11.1200973495        9.1882324058       22.0286982199
  N        11.4672300542        7.8819275026       22.2635196146
  O        12.7001475716        6.2006414711       21.2560269288
  S        10.4570334996       10.0449684815       23.4660827086
  C        11.1127502396        7.1856658826       23.4358219734
  H        11.1430037166        6.0523642671       23.4601567734
  H        10.0979105015        7.5401857449       23.5230550149
  C        12.1763001820        7.5342868434       24.5257434428
  H        11.9932481192        8.4481878155       25.1049505334
  H        13.0890447606        7.6906246367       23.9448457721
  H        12.0913052434        6.6263486458       25.2021146470
