352
 i =    36900, time =    36900.000, E =        25.1967205754
  H        11.4705275865        7.4574782448       32.6567412647
  C        11.2872971784        6.3505905398       32.6227822453
  H        12.1199207588        5.8879249063       32.1543244209
  C        10.0814096279        6.1295328042       31.6907782752
  C        11.1085561339        5.6824631129       33.9586641144
  C        10.3934433266        6.6530178498       30.2249651401
  H         9.9134265420        5.0548527032       31.7309080037
  H         9.1375729972        6.5581337168       32.1299509528
  H        11.9642226892        5.6715303006       34.6349231343
  H        10.2902860525        6.2009623839       34.4131264132
  H        10.8043147570        4.6278909230       33.8060098217
  C        10.0434891812        5.6351931758       29.1776582470
  H        11.4444497326        6.7536323973       30.2760215326
  H         9.8937785311        7.5611895382       29.8956475389
  C        10.3400115877        6.0834822701       27.8298934346
  H        10.5997172715        4.6878690357       29.3718914744
  H         9.0218396315        5.4626012109       29.2786393719
  C         9.4113664391        5.4130139027       26.8421210610
  H        11.4345672592        5.8738764621       27.5467245323
  H        10.2057494418        7.2177520558       27.7449221307
  C         8.1463606514        6.2246345937       26.5951773389
  H         9.9579628396        5.2613400973       25.8595387223
  H         9.1678466893        4.4128834862       27.1169259946
  C         7.0599982795        5.4873283436       25.7783346600
  H         7.7615324270        6.4643833926       27.5954662959
  H         8.3501135753        7.1134830502       25.9525503087
  C         6.7513681478        4.0840427521       26.4370857615
  C         7.5616995118        4.7410078360       24.5217535246
  C         5.8268179289        6.4067638303       25.4396522009
  C         7.0607752309        3.0326128025       25.6520669254
  C         6.1604111486        3.7382085318       27.6458144097
  C         7.6332939048        3.3921500031       24.4692198444
  C         7.9937803790        5.3935602490       23.3452809965
  H         6.0382050801        7.1677931284       24.7474425084
  H         5.5223929201        6.9866785183       26.2621029711
  C         4.5680684706        5.6553838698       24.9192549744
  S         6.6992252957        1.5133732582       26.3276426413
  C         6.1739539350        2.3552937352       27.7293937646
  H         5.7811696444        4.5528157545       28.3135754421
  C         8.0836707534        2.7440284437       23.3330524288
  H         7.8966282735        6.4743995320       23.2524938434
  C         8.4373271723        4.6999563000       22.1879937042
  H         4.6011569746        5.5494348105       23.8278417739
  H         4.4886187659        4.6397989812       25.3497280883
  C         3.1938659838        6.3572216822       25.1796822251
  C         5.8048022047        1.6483002291       29.0463727169
  C         8.4335465226        3.3427339805       22.1437341992
  H         7.9929280604        1.6337687310       23.3300161370
  C         8.7755019917        5.0425308451       20.9159410437
  H         2.4897738389        5.8796442356       24.5533739365
  H         3.1995894428        7.4369188078       24.8518751433
  C         2.6834607844        6.4352165454       26.6547942472
  C         5.8092595232        0.2223802834       29.2297763466
  C         5.3445452315        2.4828915792       30.2285186510
  C         8.6179265112        2.6092609740       20.8988199738
  C         8.8671604100        3.9125231573       20.0863651964
  S         9.0762643239        6.5650274049       20.1331932645
  H         1.7272152740        6.9056065270       26.5174764023
  H         3.2808060861        6.9677965786       27.3387021526
  C         2.3217186499        5.0825767266       27.2034981665
  N         5.9717151335       -0.7845164280       28.2352040238
  C         5.6283858262       -0.2878306572       30.4901170737
  C         5.1627674494        1.9132810657       31.4968085467
  H         5.1973853687        3.5780853671       30.1411839434
  C         7.2751074258        1.9588218438       20.4518231857
  C         9.9113139389        1.6850120289       20.9979713753
  C         9.1638025405        4.2656216526       18.7698639156
  C         9.3071762639        5.6211234176       18.6254396022
  H         2.2795497718        4.3016781275       26.4581903684
  H         3.1838899466        4.8864419143       27.8586535156
  C         1.0299658856        5.1349069221       27.9538684926
  S         6.1532756995       -2.1917293154       29.0192815462
  N         5.8513259897       -1.6530171257       30.5319713211
  C         5.3957212249        0.4586367750       31.6763726526
  H         4.9253864284        2.6834811932       32.3251606290
  H         6.9319640995        1.2638240394       21.2288106635
  H         7.6955916305        1.2306640373       19.6970550730
  C         6.1665603382        2.8450561027       19.8508635173
  H         9.8426894861        1.0749229010       20.1684932652
  H         9.8521605863        1.0733823681       21.9150346083
  C        11.2581055084        2.4570930811       21.0129982138
  H         9.1758872580        3.5317171708       17.9645144465
  C         9.7022754822        6.3051478257       17.4060695821
  H         0.6236608593        4.0916032199       28.1604302567
  H         0.4280767808        5.5505133954       27.1545961583
  C         1.0807852936        6.0482501414       29.1557859609
  C         5.1977958273       -0.1989565925       32.9590426016
  H         6.4052216964        3.0774719566       18.8368853790
  H         6.2044263301        3.8596956299       20.1874173854
  C         4.6974567194        2.3157116680       19.8637338608
  H        11.1857432555        3.1752237625       21.8510342136
  H        11.5159220086        3.0270853364       20.1372457428
  C        12.3814608940        1.4159136349       21.0877318250
  C         9.6882479428        7.7340919987       17.2768509305
  C         9.9952698038        5.4103399918       16.2233580716
  H         1.9368839755        6.7497237349       29.1838257547
  H         0.1794723122        6.6057161451       29.0312692912
  C         1.1144867548        5.3579789435       30.5445906605
  H         5.3170919575       -1.2346444310       32.7955239411
  C         4.7892482419        0.2874804573       34.1935743325
  H         4.1109514479        2.7210620861       20.6590535383
  H         4.6742874598        1.2357889041       20.1074670501
  C         3.9480059787        2.5422741936       18.5207611796
  H        12.4640929937        0.8734711484       22.0568591632
  H        12.1982413537        0.6657766047       20.2745843743
  C        13.8046424628        2.0430620491       20.9061913459
  N         9.4619268583        8.7079379924       18.2831147419
  C        10.0033966494        8.3402963629       16.0432274439
  C        10.1896318625        6.0430166723       15.0072388450
  H         9.9515863412        4.3963034505       16.3200854734
  H         0.4651010062        4.4767118125       30.4649143685
  H         2.1214486854        5.0447611564       30.8256165623
  H         0.8276459667        6.0528208553       31.3117235874
  S         4.4832549795        1.9453478850       34.6777262909
  C         4.7037430789       -0.6830380481       35.2649272237
  H         3.7212100748        3.5913515291       18.3251105497
  H         4.6414939330        2.2101975601       17.6575596749
  C         2.6712161217        1.7303551051       18.3534557217
  H        13.7109355514        2.8005072527       20.1779012386
  H        14.4240708150        1.3074732118       20.4614843136
  C        14.3602446237        2.6659290013       22.2231312723
  S         9.7343549516       10.1967605316       17.6005941969
  N        10.1615306555        9.7597936424       16.1136624418
  C        10.2605854923        7.5611666354       14.8636866754
  H        10.2811296035        5.3561302597       14.2104430914
  C         4.3018992273        1.2820185550       36.2634523223
  N         4.2778056516       -0.0781255812       36.3704849920
  O         4.7810711351       -1.9049978585       35.0724232750
  H         2.0556622783        2.0348110387       17.5533906795
  H         1.9599894069        1.7961553241       19.1441986622
  C         2.9341420594        0.2319903312       18.1317343120
  H        15.0255089187        3.5178079290       22.0807191591
  H        13.4308001024        3.0331833412       22.6581448367
  C        14.9562591843        1.5847198939       23.1817914597
  C        10.5305242337        8.2658248797       13.6422741000
  S         3.6240266709        2.1490469903       37.5625811480
  C         4.2364288188       -0.8601566032       37.6040246164
  H         3.8369623039       -0.0040726808       17.4709975481
  H         3.0643505778       -0.2347598665       19.0946324126
  C         1.7679776383       -0.5494852323       17.4600118799
  H        15.0254054674        0.6705418621       22.6415842783
  H        14.2958845958        1.3513949172       23.9683578464
  C        16.4120042219        1.7889866633       23.6690299711
  H        10.5105551255        9.3373349738       13.6076571852
  C        11.1502750235        7.7733304479       12.4300797731
  H         3.4848467015       -0.3364428491       38.2450664471
  H         3.8716337002       -1.8732262806       37.3265717712
  C         5.6185096262       -1.1111957257       38.3301756343
  H         1.3915108014       -0.0304142862       16.5679844529
  H         0.9054185021       -0.6380924491       18.1396104329
  C         2.0241928501       -1.9659940616       16.9244251344
  H        16.4848116856        2.5807971998       24.4492283169
  H        16.8686430339        0.8995334265       24.2440394900
  C        17.3688691947        2.0795195901       22.5374747735
  S        11.5481387342        6.1175422284       11.9226895463
  C        11.4313611960        8.7672122278       11.3973035285
  H         5.8224523250       -2.1494380090       38.2293667082
  H         6.3323539371       -0.5436842639       37.8418928959
  H         5.6479190962       -0.7868329886       39.3447875308
  H         3.1212999326       -2.1576997938       16.9498526481
  H         1.8049818027       -1.9038359091       15.9043784982
  H         1.3703886614       -2.6511858161       17.4780870478
  H        18.3909334800        1.7268719354       22.6894060917
  H        17.3169822873        3.1680006387       22.3405938087
  H        17.0235036845        1.6409273987       21.6290021528
  C        12.1457524933        6.8266644470       10.4356305440
  N        12.1539022344        8.1602021019       10.4238395356
  O        11.3113830724        9.9435659330       11.6065615658
  S        12.8047195493        6.0166395267        9.0521496393
  C        12.3314488398        8.9489516467        9.1829508503
  H        12.6079692477       10.0031815993        9.4396243052
  H        13.2298580347        8.6410120483        8.6405222528
  C        11.0716144514        8.8115177121        8.2880752714
  H        10.6956026878        9.7700583447        7.8381578899
  H        11.2230915936        8.1024705159        7.4343453351
  H        10.3187637586        8.3560833791        8.9088099945
  H        21.1557442196       11.1117762905        3.6892745646
  C        21.9716134474       10.3595785098        3.8019136954
  H        21.3856674947        9.3923766662        3.8595984500
  C        22.7191119233       10.8169016409        5.0595730942
  C        22.8787566061       10.3266701223        2.5666631458
  C        21.6679547457       11.0282829416        6.1937990156
  H        23.3024426871        9.9927411989        5.3171787267
  H        23.3278321109       11.6994758268        4.9163475586
  H        22.2349194052       10.2682471074        1.7102086733
  H        23.4876402644        9.4756966382        2.5551125994
  H        23.5032288772       11.2966820757        2.5329395096
  C        20.9432772116        9.7097995182        6.4767070764
  H        22.2563916682       11.2497323228        7.1018604091
  H        20.9516152899       11.8811516224        5.9861874131
  C        20.2184666694        9.6655100892        7.8075294570
  H        21.5389734282        8.7957079139        6.3598124081
  H        20.1437230774        9.3490691575        5.7826769396
  C        18.8680600666       10.3252987289        7.7992992574
  H        20.9436133775       10.2686606662        8.3913687235
  H        20.2213677007        8.6702510566        8.1716155485
  C        17.7310040121        9.5029144021        7.0993358938
  H        18.5439177892       10.3953150116        8.8489105517
  H        19.0484308565       11.2921441810        7.2039014059
  C        16.5027291824       10.4067995587        6.9036697677
  H        17.3364132895        8.5806281282        7.6803399251
  H        18.1000221409        9.0235663317        6.1957183645
  C        16.7517717171       11.6940910217        6.1750152561
  C        16.1151408669       11.1205785578        8.1629524346
  C        15.3156535732        9.7213665734        6.1310610416
  C        16.4835663837       12.8243788870        7.0161472220
  C        17.2975474899       12.1131096758        4.9498103571
  C        16.0198980879       12.4431501013        8.2522662263
  C        15.7338325498       10.4610083687        9.3189262845
  H        15.8025701133        9.5063126659        5.1572857191
  H        15.0732976866        8.8683296422        6.7812487508
  C        14.0462631335       10.5604437571        6.0795456559
  S        16.7580544296       14.3544711520        6.2859645869
  C        17.3195738260       13.5125145109        4.8110618282
  H        17.6133646982       11.4447013268        4.1064930103
  C        15.5345815596       13.0697587284        9.3588570858
  H        15.7653494559        9.3870940616        9.2188590775
  C        15.3075729774       11.0624903435       10.4771906212
  H        14.2858721714       11.5968212271        5.9859356606
  H        13.5027612122       10.4901250195        6.9850063370
  C        13.0073726487       10.1400111096        5.0348720526
  C        17.7800998690       14.2548504352        3.5601418423
  C        15.2560461952       12.4301911116       10.5609126168
  H        15.5801807173       14.1243028989        9.4355169681
  C        14.8472504845       10.6833083112       11.6992595926
  H        12.1250930633       10.7267023809        5.2856804404
  H        12.6171786333        9.1216012253        5.1346461129
  C        13.4552076399       10.4174409703        3.6189986763
  C        17.8190664269       15.6712374488        3.3443216701
  C        18.1529603012       13.5202812271        2.3236747982
  C        14.8506032347       13.0740907383       11.8195786858
  C        14.6236223081       11.7535618844       12.5451835921
  S        14.5366205551        9.2232190509       12.4919793309
  H        14.4726630255       10.0350107564        3.3295277172
  H        13.5732027011       11.5121560783        3.4971891262
  C        12.3553705288        9.9995303532        2.6047701944
  N        17.6238263101       16.6556636611        4.3252520702
  C        18.1286382471       16.1938393511        2.1466591573
  C        18.4922350365       14.0881717296        1.1163658009
  H        18.4051076932       12.5095056595        2.3385093905
  C        13.4823485336       13.8105754009       11.6313124989
  C        15.9406558458       14.0289382359       12.4679963460
  C        14.1338602730       11.4075201318       13.8180975939
  C        14.0816626010       10.0571720101       13.9320403588
  H        11.9120514399        9.0372009077        2.8167637623
  H        11.4968065813       10.6656476784        2.6124925189
  C        13.0699781221        9.8271913042        1.2754447629
  S        17.6003429333       18.1000809046        3.5947729276
  N        18.1415390177       17.5986410745        2.1730094784
  C        18.3688827123       15.5191739275        0.9509242451
  H        18.8921049249       13.5588234202        0.3205249279
  H        13.5268727720       14.5454221335       10.7952051908
  H        13.2786958433       14.4275347872       12.5169309490
  C        12.2267993076       12.9360658380       11.3141254134
  H        16.2798770184       14.7294109714       11.7366868554
  H        15.5250465868       14.6012765372       13.2863015706
  C        17.2215130096       13.2750884585       12.8200473096
  H        13.8190928769       12.2496783930       14.4350300642
  C        13.6909259093        9.2987251274       15.1770105022
  H        13.3611699934        8.7027521189        1.2859278180
  H        14.0349923262       10.3387445214        1.2989789408
  C        12.1537947468       10.1338740114        0.0379404850
  C        18.7664132770       16.1943594130       -0.1695211099
  H        12.4911207993       12.4147307376       10.4029164439
  H        12.0972037244       12.1264151855       12.0283304025
  C        10.9725018946       13.8621995124       11.1768078454
  H        17.5936076065       12.7833817138       11.9228361971
  H        16.9387705872       12.4436349730       13.4404201517
  C        18.2581374635       14.2236950610       13.4229305582
  C        13.6927257595        7.8611315740       15.3991880372
  C        13.3797579877       10.1416906060       16.4144756152
  H        11.3563616063        9.3320407812        0.1434329256
  H        11.5174937936       11.0508685870        0.1496720826
  C        12.7935311883       10.0748566624       -1.3670266068
  H        18.7490091267       17.2806893286        0.0154031095
  C        19.1520391947       15.7376058598       -1.4808864222
  H        11.1865979042       14.4055659552       10.2924430813
  H        10.8672444053       14.4520029542       12.1062514621
  C         9.8030226174       12.9665307686       10.9107422058
  H        18.6696306310       14.6399661198       12.5342872689
  H        17.8612218932       15.0095914866       14.0175929650
  C        19.3733674363       13.5566177450       14.2741657500
  N        13.9356240598        6.8662672993       14.3746569659
  C        13.3437415174        7.2983962691       16.6102335424
  C        13.1373285986        9.5619988953       17.6781712131
  H        13.5024009727       11.2767191446       16.2585094353
  H        13.6869802390       10.5944381725       -1.4504798489
  H        12.0840781198       10.6003681804       -1.9581795430
  H        12.6800448167        9.1437225686       -1.8918820282
  S        19.3992631821       14.1507738393       -2.0294306993
  C        19.2881660124       16.7854597214       -2.4880119398
  H        10.0057111139       12.0315554465       10.5253658095
  H         9.3802213167       12.8439359716       11.8942299396
  C         8.8030696186       13.6352492825        9.9372385402
  H        19.4784114043       12.4456745827       14.0441922903
  H        19.0592522152       13.5829076007       15.2912255301
  C        20.7095140682       14.3802839949       14.2353795513
  S        13.7597667128        5.3880082565       15.0948898939
  N        13.2879449372        5.9450161264       16.5494417621
  C        13.1629118450        8.0662207227       17.7964884682
  H        13.1547411507       10.1918330600       18.5408219266
  C        19.7847096061       14.8709447911       -3.6014925720
  N        19.6551835248       16.2558490782       -3.6602145326
  O        19.2013338382       18.0145324595       -2.2650101606
  H         8.4379321896       14.5502648578       10.3888224046
  H         9.4285247492       13.8564742466        9.0566496404
  C         7.5918107706       12.7911418600        9.5897386096
  H        21.5084980930       14.0536564682       14.8926035731
  H        21.1284407736       14.4045425217       13.2599446546
  C        20.4379216713       15.8064323853       14.6540296883
  C        13.0441325161        7.3072500092       19.0111500421
  S        20.3870537085       14.0214641926       -5.0221995613
  C        19.7278582311       16.9660946622       -4.9148845558
  H         7.7568270601       12.1402952473        8.7253123741
  H         7.3367806593       12.1625052039       10.4474646003
  C         6.3686107246       13.6884344214        9.0894416392
  H        19.8095019568       15.8431486057       15.5466118761
  H        19.7924927181       16.3074854300       13.9286849517
  C        21.6600201514       16.6989295096       14.9082363092
  H        13.3928367351        6.2856645066       19.0119164532
  C        12.4501117748        7.6901474075       20.2080527428
  H        20.5502749313       16.6644119283       -5.5774034499
  H        19.9596528671       18.0463342410       -4.8190929709
  C        18.3428195329       16.7939790144       -5.6472168530
  H         5.9823704616       13.3966577833        8.1504729950
  H         6.4699474344       14.7871629568        9.0461967228
  C         5.2965869193       13.5023967795       10.1346187556
  H        21.3396807045       17.5634324443       15.4723407894
  H        22.2341070049       16.0663090613       15.6106179299
  C        22.4615794392       17.1557277894       13.7161298934
  S        11.8361418118        9.2423392969       20.5866856780
  C        12.3065820202        6.6314584670       21.2391371306
  H        17.6767715854       16.4773173699       -4.8762521283
  H        18.5316868540       16.0012930053       -6.3160203909
  H        17.9958065153       17.7096708908       -6.0934641700
  H         5.0215816259       12.3670240549       10.3161889344
  H         5.6527798197       13.8988747007       11.0937115566
  H         4.4088654214       13.9974911415        9.8092489416
  H        22.5158711094       16.4802238895       12.8953787848
  H        21.9304218948       18.0299778640       13.4084206548
  H        23.4448851187       17.3144673001       14.0280997065
  C        11.5212970977        8.5496289361       22.1935180590
  N        11.7397369741        7.2012137411       22.3254333519
  O        12.7535935209        5.4895579584       21.1583733110
  S        10.8420468372        9.4816445787       23.5116789815
  C        11.6759706550        6.3528137508       23.5056455362
  H        11.4151720562        5.3417897572       23.1625295978
  H        10.7779058139        6.5991436431       24.1077595314
  C        12.9679230891        6.5978612182       24.3648746924
  H        13.8003238366        6.0081295883       23.9756261184
  H        12.9715138549        6.2600048636       25.3696031683
  H        13.2733094951        7.6241994715       24.3343472672
