352
 i =    51100, time =    51100.000, E =        25.0847193749
  H         9.5761258277        7.1362905441       31.3639580215
  C        10.5692611647        6.8556796153       31.7967594392
  H        11.1649404966        7.7724111732       31.7041339426
  C        11.2302485340        5.6927116909       31.0508659341
  C        10.5050050861        6.4619734782       33.2578976047
  C        11.4278984528        5.9145947096       29.5610095100
  H        12.2395430246        5.5745753976       31.3408768206
  H        10.6442155770        4.7800417057       31.1473454675
  H         9.5249535674        6.7093553725       33.6119062682
  H        10.7000582152        5.4240556053       33.4173656016
  H        11.3632896535        6.9603408204       33.7143100501
  C        10.2878087370        5.5442476689       28.6424875684
  H        12.1911548599        5.1877166953       29.3835574046
  H        11.7987072837        6.8585257684       29.4587694955
  C        10.7489775764        5.6363450868       27.1915399168
  H         9.8620854127        4.4818501872       28.8751161178
  H         9.4016020183        6.2056030956       28.8034562705
  C         9.7026638371        5.0350489859       26.2175785651
  H        11.7638128540        5.1504306489       26.9011764926
  H        10.7855388519        6.6828092993       26.9508076567
  C         8.3646495844        5.8032562509       26.2436181485
  H        10.0916648547        4.9421899769       25.2234024001
  H         9.4582263637        4.0033321418       26.4246620883
  C         7.1780863481        5.1548485949       25.4385328615
  H         7.8705438633        5.8730569282       27.1837303183
  H         8.5510329776        6.8807813086       25.9560582753
  C         6.8504987342        3.7724519621       26.0608331896
  C         7.6856935526        4.3963657239       24.2553890213
  C         5.8649198807        6.0646660611       25.2823321036
  C         7.0456006833        2.6756155993       25.2772126560
  C         6.3641978722        3.4671495492       27.3788462293
  C         7.6438504615        3.0752231037       24.1026407678
  C         8.0318815032        5.1161277501       23.0863381612
  H         6.1344903613        6.8847655375       24.6127292824
  H         5.5867165975        6.4829334592       26.2731146937
  C         4.7217543329        5.3216576081       24.6193859511
  S         6.5248791276        1.2010603466       26.0576433187
  C         6.1547592527        2.1148403295       27.5307953714
  H         6.3266089749        4.2190423667       28.0805241569
  C         8.1689308531        2.5154090964       23.0197592736
  H         7.7801905851        6.1870199254       23.1392990436
  C         8.5342136866        4.5342775744       21.9801990663
  H         4.9024222282        4.7367149752       23.7240602442
  H         4.6350692191        4.4412160598       25.2310235202
  C         3.4161611954        6.1617245029       24.6114359346
  C         5.7199408222        1.4296771411       28.7272885244
  C         8.6516770826        3.1694689652       21.8301025249
  H         8.0455529618        1.4810349686       23.0052881877
  C         8.9059384591        4.8966302131       20.6873276461
  H         2.7553759150        5.6346546226       23.9798284609
  H         3.4668896352        7.0939375535       24.0536446307
  C         2.9699716529        6.4595859922       26.0755433459
  C         5.7816795834        0.0950221364       28.9880797277
  C         5.2840986864        2.2017666937       29.8982337524
  C         9.0059061783        2.4819579427       20.5297428455
  C         9.2648656303        3.8423872652       19.8704686485
  S         9.0143727734        6.4093008986       19.8602608722
  H         2.3847787103        7.3603660161       25.9806470982
  H         3.7607336238        6.8656842006       26.7801281554
  C         2.1588983273        5.3267098274       26.7670880417
  N         6.2092526598       -0.8887272388       28.0407326507
  C         5.5269037662       -0.4902601678       30.2163601877
  C         4.9252393701        1.6435619955       31.1297738269
  H         5.1887176335        3.2395190752       29.8236891261
  C         7.8218936688        1.6946170707       19.8826535089
  C        10.3494178146        1.7369025749       20.6541027052
  C         9.6968179182        4.1952174199       18.6006419090
  C         9.6075604169        5.5215729508       18.3916557841
  H         1.1727349775        5.2412246290       26.3102603964
  H         2.5818810838        4.3626960964       26.6068374650
  C         1.9179999657        5.7263440217       28.2523610760
  S         6.1884782390       -2.3429463111       28.7110541126
  N         5.6005414837       -1.9111957281       30.1618108646
  C         5.1445433927        0.2256661060       31.3246446135
  H         4.6203586697        2.2862643001       31.9235038753
  H         7.5543287978        0.8406714398       20.4344447931
  H         8.1087400334        1.1952170986       18.9631030441
  C         6.5669931422        2.5091755281       19.6756254550
  H        10.4733224349        1.4238157537       19.5960070622
  H        10.1162260676        0.8317217480       21.2620573525
  C        11.6157967582        2.4413706169       20.9558056434
  H        10.0112024281        3.4324439395       17.9834632209
  C        10.0490846773        6.2235307648       17.1502396293
  H         0.9460226127        5.4055730595       28.6003408700
  H         1.9079562823        6.8108721993       28.1745834228
  C         2.9691860196        5.2795519209       29.1857519049
  C         4.8805479193       -0.3753298338       32.5901335001
  H         6.7365839562        3.2603621333       18.9345688165
  H         6.2319699467        3.0842330161       20.5749262846
  C         5.2834293629        1.6929304747       19.2319822440
  H        11.5614726130        3.2000216540       21.7337581462
  H        11.9145127357        2.9351503180       20.0780551401
  C        12.8885143181        1.5510985346       21.1232900823
  C        10.1242646350        7.5866954066       16.9946768345
  C        10.2310471162        5.4087747588       15.8632406475
  H         3.3198959710        4.2399532648       29.0438203983
  H         3.8625707540        5.8564711532       29.1008715080
  C         2.5799305036        5.4726535749       30.6077168837
  H         4.9693611396       -1.4262011463       32.6490767692
  C         4.4214056203        0.1754898883       33.8157097792
  H         4.4864784119        1.5516989252       20.0813814036
  H         5.7804153293        0.7059099482       19.0433395810
  C         4.4841074011        2.1164949718       18.0178958814
  H        12.8751762329        0.9377401445       22.0150931455
  H        12.9584795762        0.9218226109       20.3102183886
  C        14.1748589580        2.4383493908       21.0337653018
  N         9.9081116920        8.5091365669       18.0179353969
  C        10.4582157140        8.1575377688       15.7352752956
  C        10.5484873658        5.9682992030       14.6341436001
  H        10.2073106905        4.3045244259       15.9893258564
  H         3.2302582879        4.8569373539       31.2233221202
  H         2.8162819534        6.4885088773       30.9653056237
  H         1.5239119405        5.2652828572       30.6967715288
  S         4.1561522886        1.8082104762       34.3634954625
  C         4.3871600453       -0.8164812212       34.9526797307
  H         4.0276538949        3.0739981782       18.1025094823
  H         5.0286670851        2.0276700174       17.1342543800
  C         3.3492420163        1.1643564872       17.8509027506
  H        14.1049391671        3.1167026981       20.1751086951
  H        15.0647542333        1.8316324602       20.8293184615
  C        14.4487339958        3.2236596066       22.3174944998
  S         9.9302976675        9.9228142168       17.2759230044
  N        10.5262708634        9.4806008976       15.8616493354
  C        10.7399197790        7.4337080476       14.5389117592
  H        10.5515430807        5.3671498359       13.7379687801
  C         4.0066223016        1.1766767756       36.0217455739
  N         4.0459313221       -0.1626987874       36.0868298172
  O         4.5182610150       -2.0336443709       34.8058645379
  H         2.7413056345        1.3337092718       16.9963537672
  H         2.6573140583        1.2480950072       18.6480250384
  C         3.8103908704       -0.3215371982       17.9101780662
  H        15.1155914208        4.0619735747       22.0401216584
  H        13.5612739659        3.6949631473       22.6671831023
  C        15.1080712298        2.2716537368       23.2974204832
  C        10.9939596132        8.2633171147       13.3567958620
  S         3.4941313382        2.0889534650       37.4597148345
  C         3.8812391233       -0.9766728957       37.2529188204
  H         4.5489946348       -0.4287034381       17.1524625762
  H         4.1929598485       -0.6324505265       18.8908092843
  C         2.5057993799       -1.1229946807       17.6027234153
  H        14.7907842135        1.2068394224       23.1200486559
  H        14.6853162673        2.5302842218       24.2170953620
  C        16.5861042704        2.3605351427       23.4240786227
  H        10.9077727298        9.3525615231       13.5421191493
  C        11.3817397063        8.0037806475       12.0662750778
  H         3.1091933960       -0.5566921294       37.9169360437
  H         3.4731410940       -1.9241750734       36.8735039439
  C         5.2728475158       -1.0902160010       37.9259592927
  H         2.7920353290       -2.0927141834       17.3364778879
  H         1.9946877834       -0.7324478558       16.7183852917
  C         1.5653778623       -1.3190964635       18.7571840539
  H        16.8575797396        3.3785344823       23.7325640482
  H        17.0344261977        1.7140870823       24.2631889155
  C        17.4233634009        2.0807095225       22.1491495292
  S        11.9655720812        6.5244797774       11.5185619710
  C        11.6107048991        9.1836531014       11.1420062893
  H         5.3172677148       -1.7961612710       38.7696168946
  H         5.9923486847       -1.4137797593       37.2370722133
  H         5.5933757609       -0.0835273766       38.2515721756
  H         0.9284811718       -2.0743831235       18.4065235943
  H         0.8483810531       -0.5182723302       19.0327292022
  H         2.0750245049       -1.6157599457       19.6802174123
  H        17.2082599647        2.9077200523       21.4454979142
  H        17.0774171501        1.1925867649       21.6708313530
  H        18.4937320421        2.0289001182       22.3897580230
  C        12.4178752011        7.3087005587       10.0987792921
  N        12.1720144265        8.6544448931       10.0472325567
  O        11.2945151850       10.3422729711       11.3297166199
  S        13.3951926162        6.5677438498        8.8218392306
  C        12.3163530399        9.3465516223        8.7716305296
  H        12.6154824340       10.3603349628        9.1201763126
  H        13.0576193854        9.0425068047        8.0592591868
  C        10.9542139770        9.3567833826        8.0921839080
  H        10.6541601744       10.4171520255        7.7989571659
  H        10.9262548528        8.7141409650        7.1898697283
  H        10.2679790518        8.7577545901        8.6947231814
  H        23.4892166363       10.7834882337        2.8503841854
  C        22.6884146806       10.8723015021        3.5589180505
  H        22.8678324265       11.8397167586        4.0009712388
  C        22.7316568110        9.7503178782        4.5490435084
  C        21.3857216042       10.9355789193        2.7161690289
  C        22.1054447709       10.1119080273        5.9016842276
  H        22.1596576388        8.9825448929        4.1714724770
  H        23.7601056662        9.3776099667        4.6686334386
  H        21.6495418059       11.4200717103        1.7812980576
  H        20.7035749387       11.5723826929        3.2791945129
  H        20.9220981100        9.9833209105        2.3891423520
  C        21.2888435169        9.0461992642        6.6231675190
  H        22.9323349279       10.4604081901        6.6053928790
  H        21.5007953307       10.9847980438        5.7950442717
  C        20.5979116005        9.6165822422        7.9240388684
  H        22.0091997558        8.2468241755        6.8905091998
  H        20.5722924462        8.7575097024        5.8704336606
  C        19.4053527535       10.5168684069        7.6662915274
  H        21.3587366461       10.0342420970        8.5615418754
  H        20.3553048048        8.8042612210        8.6530965674
  C        18.1199875400        9.7815060132        7.1895975424
  H        19.1845876889       10.9983827990        8.5978291371
  H        19.7282058164       11.2739801055        6.9659056660
  C        16.8684451560       10.7277088641        7.0545808202
  H        17.9932474875        8.9611121179        7.8605018459
  H        18.3092805821        9.3171540134        6.1837694922
  C        17.3234432653       12.0705749078        6.4179166286
  C        16.4691609838       11.4042505843        8.3702012891
  C        15.8048332076       10.0119436384        6.2131889803
  C        17.1519734635       13.1310884974        7.3128061073
  C        17.8368424892       12.5103521038        5.2217881956
  C        16.5998184958       12.7507391684        8.5152922672
  C        15.9195370726       10.7258836813        9.4655288484
  H        16.2030727826        9.5382754302        5.3294941214
  H        15.4203197316        9.2033591404        6.7788014612
  C        14.6486804689       10.9883234325        5.8780463573
  S        17.5302890157       14.7131818349        6.6349156104
  C        17.9880657653       13.8723587748        5.1433438252
  H        18.1610605880       11.8367703297        4.4779472242
  C        16.1691422306       13.4217445262        9.6775647295
  H        15.6981832165        9.7259702795        9.3668271747
  C        15.6269357912       11.4126578682       10.5924423998
  H        14.9650852584       11.9348612393        5.4102083345
  H        14.3567088242       11.3078601373        6.8140823401
  C        13.4318155886       10.3893506855        5.2929387790
  C        18.4285959978       14.6873405473        3.9396899063
  C        15.6660297537       12.7653898462       10.7572859842
  H        16.1023726721       14.5070664253        9.6818698000
  C        15.1422506025       11.0584775740       11.8240192775
  H        12.5768318422       11.0592423756        5.2315713150
  H        13.0651696408        9.5896715236        5.9381223017
  C        13.5998226402        9.8334720291        3.8658740541
  C        18.3958388956       16.1037778425        3.8001694277
  C        18.7762210187       13.8573595391        2.7062525727
  C        15.2012936807       13.4891700478       11.9873781848
  C        14.9129887978       12.1619149463       12.6649888337
  S        14.6816406073        9.5204401724       12.4945575403
  H        13.8592170482        8.8079808155        3.9450684883
  H        14.4375782647       10.3174570026        3.4591642652
  C        12.3308943818        9.9375663022        2.9637107008
  N        18.0585812470       17.0508714469        4.7833632185
  C        18.6416962702       16.7498279664        2.5658248735
  C        19.0502646615       14.5452892500        1.4974931787
  H        18.7085480995       12.7672988723        2.6973251436
  C        13.9560155495       14.3703148851       11.7542208271
  C        16.2658824978       14.3658789450       12.7093040106
  C        14.5349480894       11.7143373168       13.9138810562
  C        14.3747807382       10.3665594943       14.0188915802
  H        11.4973051934        9.3037466606        3.3297566260
  H        11.9384554608       10.9765892426        2.9178467978
  C        12.6864249149        9.5875457468        1.5729996616
  S        18.1320890611       18.5744419751        4.2093401058
  N        18.5509271753       18.1572073040        2.7105281105
  C        19.0021991008       16.0057186110        1.3647091380
  H        19.1442696296       13.9521554660        0.6092267294
  H        14.3091275136       15.2498359801       11.1438815959
  H        13.5843344051       14.8743180451       12.6148829534
  C        12.8063048061       13.6117439771       11.0724587908
  H        16.6128466177       15.1401834552       12.0411238241
  H        15.8252035992       14.7844992574       13.6073600712
  C        17.4539263931       13.4746637647       13.1431160051
  H        14.2955689944       12.3698083779       14.7647060184
  C        14.0335037426        9.5996918915       15.2659357558
  H        11.9223071107        9.9167261137        0.9544227767
  H        12.6170557451        8.4898471006        1.5172182835
  C        14.0790597088       10.0080617020        0.9742912908
  C        19.2388921711       16.7247802518        0.1592966157
  H        13.1466695334       13.3384446148       10.0229801535
  H        12.5635856264       12.7106379248       11.6239823339
  C        11.5244372478       14.3546577700       10.8231784231
  H        17.9229984058       13.0287041952       12.2793568494
  H        17.1886858679       12.6023608280       13.7206466037
  C        18.5845594999       14.3323100723       13.8231559961
  C        14.0887767605        8.1969722109       15.4363246327
  C        13.8480134974       10.3422196662       16.4979839623
  H        14.2561319132       10.9996103188        1.3054925783
  H        14.9202256561        9.4225216932        1.2067320897
  C        13.9934115593       10.1064379694       -0.5611637367
  H        19.1818777594       17.7615583603        0.3188029542
  C        19.5177773311       16.3682497337       -1.1431856863
  H        11.6247362112       15.1972850384       10.1243912840
  H        11.0720108862       14.6683988903       11.7082977031
  C        10.4896123410       13.3757186043       10.1597263469
  H        19.0751624308       15.1123443052       13.1613003768
  H        18.0549861458       14.9136053251       14.5548221406
  C        19.7389496011       13.5560897154       14.4390991089
  N        14.1996083582        7.2998852776       14.3814787551
  C        13.6864217549        7.5244140743       16.5834020718
  C        13.5437723715        9.6564700974       17.6668419362
  H        13.8161892099       11.3942633962       16.5344781592
  H        14.4950367044       10.9888646559       -0.8194220805
  H        13.0405927580       10.1398275794       -0.9413131812
  H        14.5669020591        9.3302147967       -1.0434927905
  S        19.7206601302       14.7812738909       -1.7264251681
  C        19.5612280120       17.4604303202       -2.1686817497
  H        11.0472224522       13.0096220482        9.3191761322
  H        10.1729226247       12.5943736274       10.8443902248
  C         9.2501871095       14.1384007079        9.6092043660
  H        19.9079554102       12.5734886207       13.9318510848
  H        19.4357103482       13.4319773234       15.5534423001
  C        21.1011736088       14.2923851052       14.6237988367
  S        14.0590510485        5.7401827878       15.0153022162
  N        13.7330767595        6.1493361564       16.5243753734
  C        13.4110121454        8.1986504688       17.7730460462
  H        13.3395688866       10.2397094114       18.5179787445
  C        19.9240006943       15.5319305317       -3.2884925109
  N        19.8779852279       16.9250960695       -3.3208932131
  O        19.4652094701       18.6337039972       -1.8141691445
  H         8.9819419524       14.9654078652       10.2237340836
  H         9.4917917195       14.5398901347        8.6387246633
  C         8.0188694704       13.2581883596        9.7066596643
  H        21.8748082843       13.6293241260       14.9160813905
  H        21.5155146371       14.6628181455       13.6940511807
  C        20.9556236781       15.4782090717       15.5783632525
  C        12.9985311246        7.4423893099       18.9444572293
  S        20.2316460394       14.6670887910       -4.7514581077
  C        19.8407544791       17.6876109299       -4.5639234971
  H         8.1803911257       12.2998137388        9.2318579764
  H         7.7102813089       13.1074378860       10.6683862499
  C         6.8974668388       13.9106918183        8.7960396078
  H        21.6770168511       15.1635634823       16.3501283220
  H        20.0125086201       15.5099656173       16.1278650697
  C        21.4593359726       16.7950068343       15.0132701098
  H        13.0365837553        6.3283804692       18.8804791350
  C        12.3798868618        7.8169453726       20.1304892905
  H        20.6221140397       17.2373258773       -5.2311326574
  H        20.2645573229       18.6211971092       -4.4233288450
  C        18.4411375899       17.7399132223       -5.1156184661
  H         6.9228150429       13.3373104685        7.8860512214
  H         7.1323143880       14.9213454048        8.4451237460
  C         5.5555938222       13.9609512011        9.4972472555
  H        22.2901515953       16.5776579968       14.4104274474
  H        20.6235215837       17.1636091094       14.4082763950
  C        21.8251601562       17.8625270830       16.0195352052
  S        12.0238193478        9.3764662692       20.6076689697
  C        12.1688419477        6.8040405740       21.1509550932
  H        18.0118219903       16.8288546646       -5.4624073714
  H        18.4523678738       18.3851649765       -5.9351523600
  H        17.7743933721       18.1862483329       -4.4333187720
  H         5.5492141606       14.5114067659       10.4326171399
  H         4.7555097693       14.4283197035        8.9249559967
  H         5.3131826447       12.9020621752        9.8331729973
  H        21.2781090398       17.9874851737       16.8944112349
  H        22.8042097380       17.6308539972       16.2595994226
  H        21.8729757442       18.8244216356       15.5870887687
  C        11.7778451823        8.7436961850       22.2243854949
  N        11.8240360525        7.3814846078       22.2519893709
  O        12.4134112562        5.6192207606       21.0310240558
  S        11.2468337025        9.6501797822       23.6767920711
  C        11.9156124485        6.5226728861       23.4082635130
  H        11.3289641902        5.5964677157       23.3295422160
  H        11.3343767053        6.9976616998       24.2719401946
  C        13.4158225296        6.3317093329       23.8527366482
  H        13.2822866578        5.5740841266       24.6041572176
  H        13.9412839550        7.1984184506       24.1932321013
  H        14.0147189637        5.9964102651       23.0888204216
