352
 i =    62400, time =    62400.000, E =        25.3582894572
  H         8.8965036133        5.6572251827       31.9220117613
  C         9.7690983634        6.1641607523       32.1931698993
  H         9.4333646281        6.7116321178       33.1467788717
  C        10.3375985933        6.9411013284       31.0246866416
  C        10.7741625520        5.2024940416       32.9003324560
  C        11.0388471997        6.1226146809       29.9029785601
  H         9.5476664567        7.5989388679       30.6294908512
  H        11.0429804734        7.5880860062       31.4937029795
  H        10.3782136330        4.8323453560       33.8480423213
  H        10.9829688354        4.3399174590       32.3053547379
  H        11.7072349849        5.7494648210       33.1736227026
  C        10.0247639174        5.4412352872       29.0449923931
  H        11.6665471702        5.3880658941       30.3914989799
  H        11.6889437569        6.7301892896       29.2332838396
  C        10.4546991877        5.3222049112       27.5945812398
  H         9.8034460950        4.4707058918       29.4106986334
  H         9.0457624879        5.9203456904       29.1018539316
  C         9.2678329952        4.6195870081       26.8349645157
  H        11.2755958180        4.5965307788       27.5006002226
  H        10.7537497909        6.2368595677       27.0882716261
  C         8.1910900347        5.6399449112       26.2984837480
  H         9.6277226917        3.9077754090       26.1215666224
  H         8.7319304193        4.0000761314       27.5261127879
  C         7.0590377589        4.9429249659       25.5425126621
  H         7.6618043890        6.1407343955       27.0796711893
  H         8.6579079799        6.3956518208       25.6490920496
  C         6.7292702330        3.5577594352       26.1546770593
  C         7.4822630452        4.2034465476       24.2832040375
  C         5.8131565882        5.8713117708       25.1317348639
  C         6.9980929713        2.4954896507       25.3502565316
  C         6.3633128045        3.1559289358       27.4419982148
  C         7.4443150944        2.8815717718       24.1040186248
  C         8.0442599521        4.9706125588       23.1965055600
  H         5.3886395684        5.3216062162       24.2969422889
  H         6.2133428329        6.8544735227       24.8905884632
  C         4.7918984386        6.1546487943       26.2040596111
  S         6.5939780248        0.9823388670       26.1478320782
  C         6.2768222285        1.8101010893       27.5914569816
  H         6.1946041864        3.8844069724       28.1014844469
  C         7.8400592642        2.3171660976       22.8542352515
  H         8.1429302321        5.9897745863       23.3263973059
  C         8.3971761515        4.3620173221       22.0331290080
  H         4.7974745909        5.1991825984       26.7791366552
  H         5.1065406381        7.0602852926       26.8131057433
  C         3.3127888381        6.4335385447       25.7005336793
  C         5.8340359534        1.0650100302       28.7902626450
  C         8.3188369729        3.0462903814       21.8108579639
  H         7.8142048040        1.2179583189       22.7251659648
  C         8.7777358717        4.8063513073       20.7623548157
  H         3.0689500182        5.6279416999       25.0777721060
  H         3.2428351096        7.3479159328       25.0545435581
  C         2.3332685051        6.4214415187       26.8714898412
  C         5.7987193703       -0.2767869717       28.9523330750
  C         5.2196576363        1.8519021291       29.8526258987
  C         8.5447512098        2.4015390236       20.4665622888
  C         8.9060980542        3.7640581880       19.8602454439
  S         9.1751618531        6.2938398946       20.0084971049
  H         1.4695920354        6.9065527840       26.4232630138
  H         2.6589580786        7.1837042071       27.5670647012
  C         1.9476408477        5.1023382909       27.5241693542
  N         6.2337795950       -1.2035062053       28.0185535695
  C         5.5100940360       -0.8965444554       30.1972762342
  C         4.8283906323        1.3021728570       31.0238592032
  H         5.1152724343        2.9604130546       29.7492746766
  C         7.3168614305        1.5733922058       19.8153614794
  C         9.8265885112        1.5483029582       20.3318672753
  C         9.2757667238        4.1380968022       18.5638000323
  C         9.5187473326        5.4589666626       18.5244306334
  H         1.2510235821        4.4844207278       27.0012880369
  H         2.8858310394        4.5182954829       27.5450519426
  C         1.4423445740        5.2647069540       28.9485657800
  S         6.0153611972       -2.7230038485       28.6023143034
  N         5.7038661635       -2.2867038366       30.0958167079
  C         5.0037612330       -0.1312373409       31.2800171109
  H         4.4142306479        1.9882079044       31.7218040724
  H         6.9024888242        0.9794589801       20.6481601066
  H         7.7648066149        0.9828161777       19.0490437508
  C         6.2237687092        2.5044741914       19.2207642897
  H        10.1418151974        1.4813194756       19.3272476570
  H         9.6301132154        0.5235871961       20.6453547057
  C        10.9410033054        2.1767699795       21.1706889004
  H         9.2608597604        3.4059556637       17.8107917920
  C         9.9140790945        6.1316467349       17.2442615509
  H         0.8847932477        4.4088342176       29.3583944314
  H         0.6913782967        6.0514258390       29.0184870740
  C         2.6584587442        5.4342960097       29.8403321472
  C         4.7467071887       -0.6650491637       32.5229035687
  H         6.7705926713        3.0662270355       18.4279863298
  H         5.9666441485        3.1681981676       19.9791302010
  C         5.0153716358        1.7168141959       18.5879945499
  H        10.7448601829        1.9427134907       22.2664465293
  H        11.0511764136        3.2448142644       20.9945629038
  C        12.2871672566        1.3628425128       21.1092547885
  C        10.1188605967        7.5645113133       17.1695212365
  C        10.0699420239        5.3655369233       15.9772970078
  H         3.4155274787        4.6649661177       29.5981075716
  H         3.0789153568        6.4514597996       29.7424502486
  C         2.1683381094        5.3861164998       31.2774480942
  H         4.8327063084       -1.7272444574       32.4313553325
  C         4.3672864180       -0.2847699376       33.8169430003
  H         4.3333519471        1.3317881189       19.3040910374
  H         5.5332975654        0.8436995049       18.1086312536
  C         4.2619372272        2.5684551406       17.6479123054
  H        12.2556338428        0.6477649708       21.8952998920
  H        12.4628148800        0.9957513808       20.0763028230
  C        13.4494951551        2.2788528956       21.4566772311
  N         9.9595180763        8.5388680307       18.2023270664
  C        10.4028312529        8.1708755946       15.9760888664
  C        10.3350995350        5.9807594731       14.7831611700
  H         9.9245619180        4.2666927380       15.9100701282
  H         2.3427162679        6.3233915789       31.7742420925
  H         1.0723835827        5.1371995840       31.4966882649
  H         2.8966859240        4.7353346099       31.7043985879
  S         4.0278575528        1.2833614637       34.3020219341
  C         4.4192767686       -1.2613261385       34.8953814356
  H         4.1622716897        3.5985179338       18.1170455539
  H         4.8279503668        2.8003776750       16.7256574107
  C         2.9163754790        1.9663546215       17.3286042560
  H        12.9723622981        3.1704803368       21.7539819987
  H        13.9728746989        2.5221236569       20.5389231485
  C        14.5450725599        1.7103529007       22.3151752624
  S         9.9647575668        9.9798593492       17.6264680059
  N        10.3391586941        9.6209664125       16.1472830926
  C        10.5848582636        7.4401835198       14.7714501009
  H        10.4322355433        5.3724896597       13.8716568288
  C         3.9253690940        0.6018911444       35.9631325022
  N         4.1446635783       -0.7309724984       36.0917651229
  O         4.6603376742       -2.4337360545       34.6676036496
  H         2.3842457965        2.8120349751       16.9078217652
  H         2.4604178994        1.7868174800       18.3053994532
  C         2.9356746558        0.6976380029       16.4959201112
  H        14.1013206600        1.2446427806       23.1834655212
  H        14.9385461279        0.8113885410       21.9050510262
  C        15.5465679852        2.7551993673       22.5879021161
  C        10.8888235660        8.2043350438       13.5972921885
  S         3.4822499201        1.6144486242       37.4071887734
  C         4.3073404751       -1.4339671782       37.3324086174
  H         2.9207399537        0.8892002681       15.4696490143
  H         3.9524229381        0.2897477062       16.6612546635
  C         1.8145255485       -0.3050593038       16.7655542753
  H        14.8796678414        3.4395130829       23.1240623372
  H        15.8988715977        3.2293389187       21.6702317146
  C        16.7611374010        2.2716028912       23.5313029155
  H        10.8908361110        9.3217936753       13.7779328689
  C        11.2973090443        7.8383104888       12.3172946805
  H         3.5028926361       -1.0833467352       37.9881493971
  H         4.2552484354       -2.4767833644       37.1456972516
  C         5.6695040573       -1.1293447023       37.8192972068
  H         1.1743791265       -0.4452589730       15.8275093372
  H         1.1244589946        0.1147821003       17.4950376277
  C         2.3386446849       -1.6004518227       17.3972735006
  H        16.6904137602        2.7650658664       24.5265574717
  H        16.5068126483        1.2160549199       23.6736807998
  C        18.1870276023        2.2071852248       22.9469374339
  S        11.7464840558        6.2752899718       11.8589419984
  C        11.5191479517        8.8200796277       11.1786581160
  H         5.4274329440       -0.2587244829       38.3322605593
  H         6.0394317057       -1.9103627640       38.4758833895
  H         6.5457295653       -0.9863012771       37.1143373987
  H         2.4338713591       -1.5062809114       18.4555002368
  H         3.2350602799       -1.7269110173       16.8088092050
  H         1.6739850941       -2.4815503311       17.1324939603
  H        18.9101395191        1.6039854670       23.5784643301
  H        18.5005400710        3.2411679435       22.8550022514
  H        18.0478729762        1.8352270216       21.9461335242
  C        12.2573575333        6.8802094348       10.3070948813
  N        12.0078853092        8.2182549931       10.1095300246
  O        11.1649928237        9.9832182789       11.2076539214
  S        13.2358248398        6.0632684929        9.1225592809
  C        12.4125267481        8.9864788695        8.9471003800
  H        12.7426501123       10.0288747171        9.1315858126
  H        13.4204065751        8.7041922880        8.6744479175
  C        11.3064383174        8.9381108356        7.9718911546
  H        11.1009656082        7.9092750919        7.6674331265
  H        10.4102829513        9.3574541379        8.4931349359
  H        11.5510171474        9.5078098816        7.1396424809
  H        22.0913808398        9.1245085209        3.9161150541
  C        22.1295106603       10.2594787538        3.8894899153
  H        22.7826936123       10.3722847128        3.0070774452
  C        22.8815399491       10.6432941893        5.1953727691
  C        20.8561748241       10.9031503145        3.6879073006
  C        22.1130124020       10.7167739078        6.5308835052
  H        23.7143631305        9.9641976734        5.2898351437
  H        23.3914255753       11.5440380623        5.0853071905
  H        19.9712153702       10.2991758238        4.0598569014
  H        20.4787239536       11.1118895797        2.6945230389
  H        20.7643677833       11.8131066369        4.2705984327
  C        21.2828574120        9.4665441278        7.0070593587
  H        22.9398118899       10.8212366046        7.2384531308
  H        21.4958031132       11.6056373220        6.3966499928
  C        20.1847281467        9.7689786121        8.0425255405
  H        21.9695396416        8.7781845414        7.4138759832
  H        20.8079534746        8.9280827917        6.1271454725
  C        19.0843289308       10.6777167612        7.4247572656
  H        20.5679434092       10.2231846695        8.8851832362
  H        19.7224007154        8.8221682421        8.4585179648
  C        17.7810582473        9.9453410504        7.1400591875
  H        18.9007618937       11.5124405372        8.0703215252
  H        19.4167495144       11.1618281905        6.5661458927
  C        16.6445021936       10.9751448718        6.9974695308
  H        17.5341122172        9.1215443823        7.8762501150
  H        17.8452268555        9.3354712114        6.2432844072
  C        17.0275045188       12.3354329412        6.3048211052
  C        16.3351047429       11.6607201500        8.2756543303
  C        15.3392128703       10.2942145864        6.3731679225
  C        16.9697923176       13.3711328456        7.2500881805
  C        17.4380560244       12.7579597417        5.0863030323
  C        16.3603474185       13.0083063679        8.4306476350
  C        15.8075713622       11.0151673277        9.3659547577
  H        15.5682674095        9.7630556525        5.4656712884
  H        14.9967098463        9.4709101672        6.9486494991
  C        14.1539844066       11.2378712764        6.1442509169
  S        17.4218421207       14.9418878274        6.5101483695
  C        17.6663302927       14.0687739056        4.9745534762
  H        17.4030073103       12.1158416310        4.2675252206
  C        16.0233717464       13.6256886088        9.5832887455
  H        15.6299263771        9.9792328380        9.2545427448
  C        15.4831362424       11.5657016114       10.5510698978
  H        14.5191509559       12.2161595738        5.7883550737
  H        13.6475588164       11.4642849430        7.0563696440
  C        13.2028009408       10.6576689729        5.1094825858
  C        18.0952628116       14.6443538902        3.6560500981
  C        15.4945417187       12.9210023734       10.7003296444
  H        15.9259967234       14.6569259618        9.6554014993
  C        14.9938716786       11.0665758574       11.7492456549
  H        12.2552272608       11.1869564566        5.1776734928
  H        12.9349349727        9.6634883446        5.4208936916
  C        13.7878364569       10.7257677385        3.6805958236
  C        18.0632162461       16.0313096880        3.3295768699
  C        18.5919589282       13.7632793235        2.5466130616
  C        14.9995973550       13.4853944103       11.9709825198
  C        14.7128458835       12.1318366011       12.6328080487
  S        14.6658664940        9.5221701151       12.4558329817
  H        14.8479214105       10.5074421467        3.6542875203
  H        13.8189881428       11.8295893827        3.3994065712
  C        12.8781796022       10.1382285033        2.5799800435
  N        17.7429293944       17.0373164562        4.2012841241
  C        18.4269427254       16.5114588712        2.0647500985
  C        19.0916196332       14.2983681767        1.3197904795
  H        18.6140452019       12.6519686298        2.6585323255
  C        13.6343501010       14.2290804506       11.7753688365
  C        16.1274682885       14.2954499555       12.6434378990
  C        14.1955895477       11.7196854643       13.8889794581
  C        14.1405043409       10.3248882130       13.9739397125
  H        12.2642596587        9.3568624679        3.0769227441
  H        12.1244766671       10.9057638489        2.1197872812
  C        13.6635999912        9.3338521638        1.5855929755
  S        17.8149261458       18.4840822380        3.4561868606
  N        18.3633298328       17.9337831174        2.0490952922
  C        18.9613438128       15.7322046986        0.9584256749
  H        19.4714829290       13.6247071848        0.6333412143
  H        13.7700953909       15.0332533873       11.0186216146
  H        13.4615730805       14.7193066399       12.6632146862
  C        12.4917295722       13.3417921426       11.3888143669
  H        16.3931410790       15.1331729294       12.0032141961
  H        15.9161728977       14.7952491395       13.6325897013
  C        17.5076227234       13.5896177182       12.8652816404
  H        13.9055076909       12.4388714421       14.6418658412
  C        13.9062577905        9.5860717198       15.2857413737
  H        12.9627858913        8.5195078726        1.1738791686
  H        14.4113581394        8.8783315348        2.1615300150
  C        14.2316738034        9.9764480386        0.3742890664
  C        19.2724900714       16.3531678625       -0.2524596144
  H        12.5839286793       12.7832671737       10.4550855212
  H        12.2983118460       12.6767087857       12.1767792194
  C        11.3046341781       14.2607334027       11.1636172979
  H        17.9567287264       13.1691736732       11.9895510383
  H        17.3707898517       12.7598504040       13.5279895134
  C        18.4271027820       14.5039185504       13.6670168775
  C        13.8680272415        8.1636962782       15.3985476563
  C        13.7750898548       10.3040768431       16.5548913156
  H        14.7174127373       10.8512563940        0.7504616334
  H        14.9609878911        9.3067971955       -0.0816975176
  C        13.2167641642       10.1909196922       -0.7550946289
  H        18.9955708840       17.3811913561       -0.2691272972
  C        19.6375202503       16.0253949080       -1.5131275360
  H        11.6715835715       14.7614737084       10.2331538683
  H        11.3277932764       14.8911064087       12.0563191710
  C         9.9805068641       13.5943386744       10.9211945747
  H        18.4284233780       15.4830090065       13.1707553538
  H        18.0191221929       14.5416324193       14.5834398249
  C        19.9090555222       14.0330089564       13.9347763599
  N        14.1315593725        7.2062633347       14.3818871524
  C        13.7061585579        7.5317161304       16.6160699815
  C        13.6149763120        9.6564059023       17.7711166695
  H        13.8561373360       11.3334169366       16.5398939110
  H        13.7720177486       10.6191396442       -1.5515094390
  H        12.3167431253       10.8497921712       -0.5396607990
  H        12.7818576975        9.2505933475       -1.0994904580
  S        20.0236048903       14.4746633157       -1.9708881652
  C        19.5574710117       17.0678942380       -2.5524008279
  H         9.9925211963       12.7165159131       11.5728330194
  H         9.1134448615       14.1849828282       11.1143419961
  C         9.9209640666       12.9924135684        9.4474809302
  H        20.3174306468       13.6746948805       13.0353581190
  H        19.7881111822       13.1490886913       14.6326186477
  C        20.8191394484       15.0338797184       14.6456816007
  S        14.0911621017        5.6856877084       14.9576979767
  N        13.7052325325        6.1317292162       16.4471954397
  C        13.4569605103        8.1691170087       17.8206141564
  H        13.5535079958       10.2466863001       18.6495587359
  C        20.0052766850       15.2115499108       -3.6025161996
  N        19.8614017271       16.5126929388       -3.7117993086
  O        19.2053565804       18.2240183936       -2.3489419484
  H        10.3615285861       13.5277830317        8.6852948582
  H        10.4902918202       12.1230772365        9.4568885955
  C         8.5790064263       12.5169013385        9.0193689053
  H        20.2351933251       15.5456104153       15.5025369018
  H        21.5614572162       14.5718820725       15.2647408589
  C        21.3007055573       16.1936768315       13.7613880358
  C        13.0697878783        7.4487979906       18.9644773534
  S        20.4796077435       14.3450515415       -5.0040847808
  C        19.8555159932       17.1669525569       -4.9661779237
  H         8.8220058794       12.0443857943        8.0486630107
  H         8.1116994367       11.7138492249        9.6066980519
  C         7.5175218151       13.6592174889        8.6702513976
  H        20.5583470379       16.9274554552       13.5225164638
  H        21.6571751247       15.8210942846       12.7962899155
  C        22.3456569361       17.1098001092       14.3899389974
  H        13.3985497334        6.4707395896       18.9046505379
  C        12.5151465923        7.7219182240       20.2343722884
  H        20.3909391598       16.6556714221       -5.7445210888
  H        20.3953974560       18.0829652302       -4.7371831347
  C        18.3976231681       17.3997206331       -5.3812719736
  H         6.9859296709       13.5308828706        7.7162200353
  H         8.0814802230       14.5728251683        8.5472485868
  C         6.5358827994       13.7586808338        9.8259263135
  H        23.1476367509       16.4524375374       14.5985394330
  H        22.6694067934       17.8069696779       13.5861376258
  C        22.0039295184       17.9058640561       15.6668402200
  S        12.0835748970        9.2456102986       20.7362280067
  C        12.4302728066        6.6685867426       21.2636195194
  H        17.6249158266       17.5021417106       -4.5864420485
  H        18.0000929545       16.5223116540       -5.9535348358
  H        18.4287087267       18.2578838174       -6.0520580748
  H         5.5568044370       14.2201202963        9.6381767471
  H         6.3170887195       12.7799365959       10.2544540436
  H         6.9548791818       14.4650829427       10.5208076717
  H        21.9019035450       18.9117546276       15.3446036497
  H        21.0292330332       17.6773207061       16.1033214336
  H        22.6837356707       17.7031382262       16.4590479066
  C        11.5204573676        8.4759393444       22.1880166750
  N        11.7566784716        7.1682425537       22.2997167690
  O        12.7817949772        5.5747153444       21.1419116697
  S        11.0286065793        9.2385022591       23.6219026548
  C        11.4454492397        6.2934619401       23.4409939995
  H        11.1527641282        5.3140655004       23.1466635137
  H        10.4683533130        6.5899554067       23.9125182046
  C        12.5450462552        6.4982931971       24.4546011507
  H        13.2487133811        7.2148292973       24.0493817980
  H        13.0338829712        5.5931165238       24.6098478931
  H        12.1887282942        6.7949357363       25.4363547518
