352
 i =    48900, time =    48900.000, E =        25.1740049890
  H        10.5449457154        6.6838103538       32.6948458619
  C        11.3621756207        6.0387578877       32.5112145586
  H        12.1909249224        6.7240845474       32.5741667559
  C        11.3449514017        5.2665214989       31.1626475711
  C        11.6285303405        5.1075856117       33.7213982934
  C        10.7783402575        6.1107593771       30.0870273023
  H        12.3379830985        4.8776774020       30.9999186737
  H        10.7104444571        4.3908523218       31.2525175008
  H        11.8162612883        5.6175611967       34.6804825791
  H        10.7567297692        4.4601489129       33.7910145366
  H        12.4204127879        4.4002461733       33.5132847741
  C        10.5754906427        5.3713686697       28.8290600619
  H        11.4558868019        6.9759197368       29.9124302460
  H         9.7937296976        6.5703013993       30.3221978375
  C        10.6607371940        6.2567226301       27.4941234115
  H        11.2908076779        4.5066960292       28.7050488714
  H         9.5948988618        4.8782245883       28.8277534448
  C         9.9195237547        5.4613277932       26.3439705363
  H        11.6175543588        6.3948530244       27.2593812184
  H        10.2029765830        7.2095406435       27.7043472414
  C         8.5572910400        6.1124589855       26.1071985656
  H        10.5609726302        5.3977069095       25.4746576576
  H         9.7197250283        4.4603173064       26.7211203536
  C         7.5712663091        5.2373131854       25.3122578303
  H         8.0832884554        6.4098424163       27.0805254420
  H         8.7247339370        7.0312595378       25.5599028925
  C         7.2863012271        3.8599589130       25.9674050257
  C         7.9589081206        4.5261769793       24.0748414630
  C         6.2441787566        6.0583836324       25.1957494885
  C         7.5803564973        2.7858896853       25.1084651294
  C         6.6692278502        3.4352391948       27.1278077837
  C         7.9445092040        3.2109260404       23.8877627455
  C         8.3516763130        5.2589174680       22.9572109477
  H         6.4467875084        6.9361360053       24.5385615535
  H         5.9435261272        6.4602191386       26.1061472804
  C         5.0223716794        5.2556016515       24.6160492357
  S         7.1346879488        1.3187793135       25.8293156458
  C         6.5569060795        2.0667934063       27.2577682123
  H         6.4082052091        4.1990867762       27.8632985642
  C         8.3038357248        2.6278485388       22.6756697766
  H         8.3388478100        6.3485930783       23.0456768554
  C         8.7504154719        4.7181876291       21.7443529602
  H         5.3520962117        4.7778675247       23.6687413639
  H         4.8106070899        4.4765785018       25.2643096032
  C         3.7327864346        5.9500394259       24.2720146241
  C         6.1013713410        1.3938937621       28.4844705149
  C         8.7099947045        3.3564437622       21.6085188817
  H         8.2264705495        1.6130766484       22.6000386189
  C         9.1877021745        5.0719218426       20.5569599939
  H         3.1587820429        5.4808554389       23.4541235171
  H         3.9554000076        6.9415991318       23.8050313949
  C         2.8662051520        6.3589278307       25.4346735965
  C         6.1963758251        0.0601763243       28.8729932429
  C         5.5836634071        2.2126865585       29.5606908569
  C         8.9803710647        2.6709183320       20.3534038055
  C         9.3109195241        4.0139210884       19.7105564319
  S         9.4460624676        6.5993511040       19.8294805387
  H         2.1540642177        7.0665788112       25.0779050844
  H         3.5956116117        6.8478847501       26.1187606808
  C         2.0035278038        5.2810737074       26.0098657593
  N         6.5373950282       -0.9190423658       28.0051910380
  C         6.0118501615       -0.4497624949       30.1510084410
  C         5.3559925699        1.8135337895       30.8905247544
  H         5.2038941740        3.2237721563       29.2081603655
  C         7.8080718061        1.9510716293       19.8027791526
  C        10.2921863724        1.8759832749       20.4595042832
  C         9.8064480258        4.4168453192       18.4716682654
  C         9.9680607269        5.7846442267       18.3584555649
  H         1.3491949641        4.8935912277       25.1931092182
  H         2.6404756372        4.4526147302       26.3607653090
  C         1.1801511637        5.6964440671       27.2334112866
  S         6.5524389735       -2.4139001840       28.6900479381
  N         6.1961818340       -1.8693614926       30.1773698843
  C         5.5700847234        0.3671367980       31.2122244075
  H         5.0908588345        2.5878670032       31.6187952783
  H         7.5978792402        1.2240363126       20.6363833490
  H         8.0700193129        1.3488611460       18.9461232820
  C         6.6275226600        2.8037192586       19.3489166481
  H        10.4051374782        1.2393900007       19.5660239590
  H        10.1467577675        1.1231409025       21.2577769777
  C        11.5034849969        2.8068191028       20.7971887368
  H         9.9581364284        3.6668382086       17.7426950937
  C        10.3169266514        6.4910397771       17.0734483606
  H         0.6645702241        4.7610088279       27.6561468082
  H         0.4409158464        6.5703913504       27.1103772164
  C         2.2178196929        5.9540871984       28.4229337012
  C         5.3771251931       -0.2069154842       32.5252842691
  H         6.8885081010        3.4518783696       18.4950954785
  H         6.3512165868        3.4930431573       20.2450177333
  C         5.5165603054        1.8851180126       18.9022917631
  H        11.3013347862        3.4994954368       21.6721906613
  H        11.7305382149        3.4752260273       19.9331695415
  C        12.7073782735        1.9653500399       21.2329295339
  C        10.3697091510        7.9167633213       16.9166078105
  C        10.3084994267        5.6902265797       15.8145618145
  H         2.9577368748        5.1315228053       28.5666696422
  H         2.7691759955        6.9377705667       28.3107410215
  C         1.3678062242        5.9757231288       29.7057456767
  H         5.5157961124       -1.2580907697       32.4875986338
  C         4.9332733624        0.3665333489       33.7498302987
  H         5.1752643258        1.3520258818       19.7126462501
  H         5.7652638635        1.1559595744       18.0567369036
  C         4.3918251780        2.6856288880       18.3118310743
  H        12.5205959983        1.5154503809       22.2277610648
  H        12.6931964582        1.0786768436       20.6078896633
  C        14.0931289530        2.6769695228       21.0843445867
  N        10.0901109866        8.8413741374       17.9579062722
  C        10.6585020701        8.4573578103       15.7342861146
  C        10.4871239901        6.2349935257       14.5505731663
  H        10.0154549525        4.6442181538       15.9351669200
  H         0.9784581652        4.9326958823       29.8028098098
  H         1.8702213568        6.3857469421       30.5916041846
  H         0.4081683228        6.5527992344       29.6345863209
  S         4.5930595609        2.0621528807       34.2439865915
  C         4.5848055683       -0.5803402362       34.8042418006
  H         4.2513245791        3.4911192097       18.9604821308
  H         4.6145171022        3.0565129734       17.3563863538
  C         3.1082962727        1.8526085607       18.2281583722
  H        14.0411515657        3.4651665082       20.3344003025
  H        14.7373862050        1.9383822136       20.7318783365
  C        14.5620862593        3.3307926731       22.3500610563
  S        10.3109355629       10.3549292689       17.3586582427
  N        10.6678032396        9.8619350018       15.8327686636
  C        10.8572474851        7.7225397962       14.5453453798
  H        10.4304147062        5.5742388573       13.7274219790
  C         4.2273209140        1.3972045097       35.8621925047
  N         4.1865227360        0.0479761257       35.9037633565
  O         4.6715128075       -1.7766526169       34.6090294393
  H         2.4306990571        2.3032774435       17.5142657975
  H         2.5455031018        1.8179693926       19.1805201177
  C         3.1922503652        0.4146330404       17.8458982390
  H        15.2614765638        4.1180755207       22.1397661308
  H        13.7413944447        3.8129875354       22.9377060744
  C        15.1276913598        2.4092434658       23.4010744107
  C        11.1355971169        8.4887183010       13.3925370515
  S         3.6842110761        2.3953368679       37.2095181963
  C         4.1090244676       -0.6233564866       37.1419523249
  H         3.7547469843        0.4159013014       16.9173006677
  H         3.7967385543       -0.1061594209       18.6028294428
  C         1.8227413194       -0.2140350603       17.7511368707
  H        14.7073580074        1.3952807266       23.3418746546
  H        14.9024029603        2.9692924382       24.3102912964
  C        16.7007655562        2.5168195278       23.2833941067
  H        11.1606869470        9.5721997051       13.4137775606
  C        11.5319678038        8.0430502898       12.1309604259
  H         3.6646991602       -0.0945473808       37.8933995123
  H         3.4418054124       -1.4909973831       37.1546031701
  C         5.4787781302       -0.9399685352       37.6458300186
  H         1.3326491582        0.1174069021       16.8305897243
  H         1.1134526642        0.1079844270       18.5196237594
  C         1.8644729024       -1.6949342208       17.8597757530
  H        17.1172801101        3.5361661409       23.4865306818
  H        17.2198386530        2.0353003505       24.1011221340
  C        17.4161983597        2.0079526098       22.0834200063
  S        11.8430650211        6.4354731957       11.6672060020
  C        11.8204323421        9.0636920534       11.1294928831
  H         6.2095780333       -1.1890359483       36.8491176434
  H         5.8207703540       -0.1212965653       38.2579438325
  H         5.6293171276       -1.8604341652       38.2877684137
  H         2.7483005369       -2.1910958063       18.3507461976
  H         1.5754444061       -2.2586504300       16.9872248391
  H         1.0272765528       -2.0690530777       18.3653943025
  H        16.9961421972        1.0857251707       21.7134088321
  H        18.4990981656        1.8555566084       22.1013639473
  H        17.2548087588        2.7630852814       21.3831420141
  C        12.2992383359        7.0792240640       10.1141417103
  N        12.3527254552        8.4499316144       10.0554807578
  O        11.6131837340       10.3026229002       11.1756909713
  S        12.8190001649        6.1387534398        8.6927716562
  C        12.4971755988        9.0662672367        8.7483304650
  H        12.7592776140       10.1491385989        8.8720040658
  H        13.3485138628        8.7129201155        8.1445252132
  C        11.1878866806        9.0850254543        8.0864899966
  H        10.8277219473        8.2244374744        7.5261292947
  H        10.4053494524        9.3544089803        8.7106996700
  H        11.2601333543        9.9805490863        7.4324766793
  H        23.2361176367       11.6322073572        3.5665797318
  C        22.5765454830       10.8331898860        3.3316563585
  H        21.6383853435       11.3954672061        3.3846765394
  C        22.3706868432        9.6124166863        4.2929894344
  C        22.6020683357       10.4082125563        1.8270635111
  C        21.7028556584       10.0778273340        5.6152831143
  H        21.6423280526        8.8664174426        3.8741598518
  H        23.2745524555        9.1587710449        4.5520180795
  H        22.8350312228       11.2543489755        1.1615911989
  H        21.6145939903        9.9920746877        1.5526513439
  H        23.4004515033        9.6715343497        1.8336353833
  C        20.8317227909        9.0395017184        6.3238995827
  H        22.4965950999       10.3672020754        6.2590418065
  H        21.0112350867       10.9005072055        5.3452724298
  C        20.2710986242        9.6284313533        7.6111819707
  H        21.4692390247        8.2065854059        6.4868375822
  H        20.0168958552        8.5941000419        5.6770777922
  C        19.0499051600       10.5892440076        7.3705944201
  H        21.0107597057       10.2601222704        8.1563756890
  H        19.9585140323        8.7911531054        8.2516266579
  C        17.8981460086        9.8764614543        6.7755064003
  H        18.7175584258       10.8791654192        8.3805872971
  H        19.4933617534       11.4659926436        6.9081977551
  C        16.7162557831       10.7561713586        6.7204942680
  H        17.6027805498        8.9736066509        7.3463825230
  H        18.1399264305        9.5452430047        5.6938556643
  C        17.1008512105       12.0915120592        6.1187770528
  C        16.2977274797       11.4881612107        7.9233101189
  C        15.5590455796       10.0807050439        6.0206736020
  C        16.8339915310       13.2111909904        6.8460058499
  C        17.5466958911       12.4815622318        4.7945260138
  C        16.3513325824       12.8585801838        8.0701639129
  C        15.9452768679       10.8571480297        9.1409370043
  H        15.9331295887        9.5924024244        5.1094631110
  H        15.2352411207        9.2506239935        6.5804149627
  C        14.4047055735       10.8853145259        5.3707654629
  S        17.2348119808       14.7281773204        6.0741320071
  C        17.6032748997       13.8511922963        4.6325452464
  H        17.6656532664       11.7144445611        4.0788410603
  C        16.0526860731       13.4810894184        9.2336854732
  H        15.9737200856        9.7937922890        9.0266166799
  C        15.6864087211       11.4564190804       10.3554951772
  H        14.8387595861       11.4907023027        4.6040598268
  H        13.9527274833       11.3683880219        6.1959674703
  C        13.3451626882       10.1554983735        4.6563329126
  C        17.8747096397       14.4951333300        3.3293165693
  C        15.7000548793       12.7962292023       10.4096743730
  H        16.0368836644       14.5254754077        9.3150138510
  C        15.3080459012       11.0941680575       11.5898474044
  H        12.5520950153       10.9491908628        4.5049249367
  H        12.8681372566        9.3614537958        5.2531936489
  C        13.6453022538        9.5669957118        3.2891437210
  C        17.8574378902       15.8896066366        3.1349497661
  C        18.2859973942       13.7134065750        2.1256856190
  C        15.3868025973       13.4662666150       11.6937368936
  C        15.1390402212       12.1529387802       12.4139494587
  S        14.9503961586        9.5986574325       12.4020510628
  H        13.2181768922        8.5065032600        3.2467608206
  H        14.7663668846        9.4596126339        3.2119576856
  C        13.1025567412       10.3108465643        2.0448975348
  N        17.5714200682       16.8469053271        4.1159971468
  C        18.1804156216       16.5173779320        1.9374269235
  C        18.6145610840       14.3357752800        0.9541909592
  H        18.4268931028       12.6424389270        2.1430912623
  C        14.0385986158       14.2936211730       11.5086022012
  C        16.5581295828       14.1735392394       12.3742266138
  C        14.6487909432       11.7990826237       13.6830950406
  C        14.5852360070       10.4302761414       13.8366049531
  H        12.0289014466       10.2752937731        2.0398153935
  H        13.3127238145       11.4014410355        2.1151467476
  C        13.7468039305        9.7110680569        0.7866433495
  S        17.5762980330       18.3081658693        3.5023673911
  N        18.0453650713       17.9036677945        1.9963921021
  C        18.5945430084       15.8107844565        0.8182566687
  H        18.9610418988       13.6027922530        0.2161681123
  H        14.1522189240       15.1921649229       10.9881697379
  H        13.5895746892       14.5530619915       12.4613663089
  C        12.9287946204       13.4485613461       10.8562511901
  H        17.0278854095       14.9207296589       11.7374670268
  H        16.3084144995       14.6881107404       13.3146025448
  C        17.8292248387       13.3220079948       12.6502208248
  H        14.4924836828       12.5675752134       14.4876423425
  C        14.2042533604        9.6922732014       15.0926133287
  H        13.8148369961        8.6610799934        0.7197549872
  H        14.8005603202       10.0910445544        0.7845348851
  C        12.8965763413       10.3185147589       -0.3597338122
  C        18.8364358349       16.4721332450       -0.4213371752
  H        13.2867754336       13.0002539735        9.8958423585
  H        12.7521863110       12.5627824526       11.5339575561
  C        11.6167113267       14.2202195568       10.7404355938
  H        18.0875288574       12.7222476135       11.8167468156
  H        17.6688828557       12.5617848678       13.4141881807
  C        18.9329067384       14.3321040073       12.9484406838
  C        14.0423145498        8.2794819689       15.2602010624
  C        13.9529432063       10.4683674060       16.3348997452
  H        12.5525736749       11.3462170767       -0.1979485659
  H        13.5640662267       10.2610921617       -1.2603560142
  C        11.5674135948        9.5677843885       -0.6663021709
  H        18.5791765849       17.5618076048       -0.4242979275
  C        19.1593243209       15.9650125544       -1.6718230479
  H        11.6825725456       15.0621864979       10.0745846616
  H        11.4978733026       14.7634089602       11.7328521347
  C        10.4492486133       13.3044609392       10.4999148206
  H        19.4303734815       14.5228208987       11.9447983842
  H        18.5112191321       15.2698761866       13.3281647634
  C        19.9200547975       13.6745558495       13.9521642900
  N        14.2931093595        7.2896923599       14.2205387778
  C        13.6939544051        7.7135426132       16.4469172047
  C        13.5916097514        9.9042580854       17.5534698278
  H        13.9930901462       11.4927223517       16.3423797543
  H        10.7417547405        9.7417436714        0.0803075846
  H        11.6242763582        8.4665613915       -0.8281314909
  H        11.1745034565        9.9370078855       -1.6401334736
  S        19.3170157853       14.3382885742       -2.1385226228
  C        19.2639487927       16.9638131261       -2.7566050603
  H        10.7820270068       12.4548234753        9.8805688199
  H        10.1686674442       12.9235806051       11.3790368474
  C         9.3405471606       14.0559835480        9.7344297735
  H        20.2939994517       12.7193220647       13.7011772460
  H        19.4882544215       13.4695239679       14.8638761196
  C        21.1316522351       14.6675047086       14.0773528904
  S        14.1297850591        5.8270816352       14.8775124084
  N        13.8023121060        6.3232711375       16.4054124534
  C        13.4617855385        8.4304948016       17.6313878451
  H        13.2912490715       10.5808766622       18.3877739991
  C        19.6249377253       15.0562921264       -3.7844010085
  N        19.5966628299       16.3545986863       -3.9014099663
  O        19.1100427916       18.1946578133       -2.5599333594
  H         8.8727892777       14.8259071920       10.3955462691
  H         9.9445748672       14.4830301855        8.9203663223
  C         8.2645741224       13.1015366886        9.1729051728
  H        21.9709164997       14.0236371913       14.3900824894
  H        21.3886510232       15.1551745036       13.0736580196
  C        20.8681194837       15.7279896105       15.1239399065
  C        13.1598991631        7.7203596655       18.8480815515
  S        20.0118439766       14.1262208154       -5.2035846808
  C        19.5868001385       17.0384135197       -5.1814070778
  H         8.7727765028       12.3374120549        8.5577129800
  H         7.7831971246       12.5906339064        9.9803235397
  C         7.0974712195       13.7511576961        8.5296441598
  H        21.0148745636       15.2840188738       16.1131327552
  H        19.8099798528       16.0233150722       14.9330492822
  C        21.8117035227       16.9148295392       14.8786178973
  H        13.2744337597        6.6689513872       18.7789458643
  C        12.7013248512        8.2142321218       20.0592696849
  H        20.2238547623       16.7014274143       -5.9741308602
  H        20.0199135616       18.0788064844       -4.9647396621
  C        18.1120291768       17.0758896291       -5.6319650117
  H         6.7374999273       13.1570789293        7.7535131100
  H         7.3899086796       14.7067265054        8.0415190823
  C         5.9570433035       13.9692796762        9.4923538861
  H        22.8488183519       16.5402809576       14.8985733123
  H        21.5562299485       17.3975115708       13.8920743564
  C        21.6380428499       17.9905930968       15.9312877222
  S        12.0909559186        9.7410970570       20.5018555481
  C        12.6066186655        7.2097688945       21.1315762635
  H        17.7277238070       16.0379654701       -5.7550665802
  H        17.9392584883       17.6083657094       -6.5345449888
  H        17.4903340309       17.4695398682       -4.8612057789
  H         6.2028331696       14.6035493033       10.2894339184
  H         5.0258077900       14.3920599315        9.1141119154
  H         5.7293588174       13.0339006583       10.0977712736
  H        20.8119937813       18.7196004212       15.7931686695
  H        21.3968775725       17.6692635534       16.9461919948
  H        22.5282663754       18.5973579176       15.9079625793
  C        11.7376080458        9.0303339597       22.1009751835
  N        11.9887383910        7.7761643451       22.2077643699
  O        12.9118436432        6.0326635857       21.1113537815
  S        10.9197716762        9.7981009669       23.5264171240
  C        11.7431519019        6.8956906205       23.4240520711
  H        11.4002794327        5.9377384126       23.1681340848
  H        10.8906506334        7.1811132883       24.0221351450
  C        13.0435111777        6.6802093007       24.2376596316
  H        13.8669871299        6.6324088192       23.5294055122
  H        13.1215444329        5.8042222046       24.9170479659
  H        13.2115987102        7.5922771029       24.8106137235
