352
 i =    58700, time =    58700.000, E =        24.8316000622
  H        10.9471128024        4.4070256659       31.9032064384
  C        10.6152469992        5.4207931275       31.5918587596
  H         9.6706805007        5.1565329945       31.1859554129
  C        11.6462121118        5.9700188931       30.5772281545
  C        10.5757128725        6.2014166214       32.8979242367
  C        11.7577912393        5.1046705640       29.3432219257
  H        11.5368455512        6.9905654934       30.3322629123
  H        12.6011927402        5.9796153433       31.1225309028
  H        10.0939763834        5.6543705485       33.7500920657
  H        11.5709264882        6.2896257090       33.3696450312
  H        10.0590869164        7.1248908390       32.9032832911
  C        10.5013523082        5.1009516949       28.4530768891
  H        11.9290651276        4.0148145557       29.5479622201
  H        12.5085326384        5.5285583796       28.7226906635
  C        11.0014878594        5.0752887135       26.9957811339
  H         9.9223905866        4.1968109886       28.7241245107
  H         9.9249056140        5.9333481989       28.7897089351
  C         9.9444769143        4.5682359208       26.0187824545
  H        11.8032896926        4.2771225335       26.7945641643
  H        11.4642797890        6.0408098642       26.6290676756
  C         8.6827657419        5.4742548165       25.7571034561
  H        10.5104155185        4.3727134425       25.1046170649
  H         9.7132655044        3.5662723672       26.2735528615
  C         7.4727533601        4.6765802523       25.1773968731
  H         8.2401677098        5.9068543978       26.6616119793
  H         8.9724076131        6.3047194760       25.1367810527
  C         7.2007556908        3.2753995608       25.8642322336
  C         7.9571471615        3.9347001082       23.9274695780
  C         6.1797353338        5.5089930641       24.8716845864
  C         7.4206083897        2.1737043532       25.0918196699
  C         6.9167148931        2.9320204018       27.1892005201
  C         7.8730609074        2.5930069059       23.8516761714
  C         8.3410059543        4.6230929600       22.7966931326
  H         5.5813146682        4.8880694680       24.2052009991
  H         6.4660682168        6.3655315400       24.1967758746
  C         5.1822555439        5.9289042182       25.9683099381
  S         6.8874807099        0.6979007842       25.8380962226
  C         6.5525230583        1.6427822350       27.2874131076
  H         6.8127511065        3.7550937803       27.9323537635
  C         8.2124725074        2.0086652332       22.6567310281
  H         8.2015176413        5.7030339529       22.7247938849
  C         8.7132540706        4.0042098604       21.6115665846
  H         5.2279696156        5.2143295352       26.7475676363
  H         5.4652986740        6.9572117426       26.4520654170
  C         3.7380758407        5.9291064281       25.5601341431
  C         6.2145232738        1.1133466064       28.6077612745
  C         8.6252169488        2.6463582892       21.5282245852
  H         8.1349818446        0.9362746973       22.6326276249
  C         9.0853315300        4.3544921583       20.3471039316
  H         3.4439232545        4.9798052135       25.0501566980
  H         3.5862138343        6.7156198939       24.7758392493
  C         2.8580357094        6.1866126110       26.7758495984
  C         6.1449886665       -0.2474008985       28.9387226696
  C         5.6672083915        2.0449417160       29.6867655651
  C         8.9226127399        1.9380966088       20.2105969305
  C         9.2158778868        3.2582767257       19.5016162041
  S         9.2665839305        5.8885276127       19.5765074780
  H         1.9669432676        6.6761029545       26.3751293171
  H         3.2295580002        6.9019828956       27.4989067647
  C         2.5140993525        4.9157035457       27.5871307670
  N         6.4770312076       -1.2925377256       28.0259030752
  C         5.8395731068       -0.7707364017       30.2130724071
  C         5.2311613436        1.5079311652       30.9458049691
  H         5.6976794554        3.1252158357       29.4591132807
  C         7.7592566791        1.1001189852       19.5106343141
  C        10.2078065224        1.0644952841       20.3738828543
  C         9.4735112704        3.7097676799       18.1677554579
  C         9.6368860303        5.0611377844       18.1186923522
  H         1.8401153399        4.2950324277       26.9958673707
  H         3.4522435807        4.3771788441       27.7680430477
  C         1.6864066345        5.2172017245       28.7852092262
  S         6.3880005755       -2.7464228913       28.8375391542
  N         5.8845446476       -2.1982441752       30.2543658713
  C         5.3655162353        0.0409867919       31.2770718086
  H         4.8065886555        2.1470166598       31.7097840023
  H         7.4443231269        0.1948171714       20.0999972135
  H         8.2713947299        0.7496497409       18.5375804816
  C         6.5177694437        1.9546019907       19.1546085779
  H        10.4834801879        0.6714524326       19.4674977831
  H         9.8994702691        0.2406209800       20.9680725948
  C        11.4003222651        1.7165313340       20.9832523927
  H         9.6448927944        2.9884524801       17.3904805608
  C         9.9468692799        5.8483396935       16.9528650825
  H         0.9436958629        4.4586910768       28.8999088424
  H         1.1037920714        6.0756488215       28.5158551218
  C         2.5274739770        5.4044068275       29.9546304496
  C         5.0060820848       -0.5941834177       32.5242992551
  H         6.8058106667        2.6648438884       18.3757104678
  H         6.0193025902        2.5299321612       19.9888239688
  C         5.3817568349        1.0493874842       18.6097551068
  H        11.1312500384        1.7457689449       22.0982085130
  H        11.4399722031        2.6759128026       20.5408669742
  C        12.7437503519        1.0006362357       20.7816703280
  C         9.9578343295        7.2649204900       16.8174081865
  C        10.0950747353        5.1705674284       15.6707674709
  H         3.0519954140        4.4496534828       30.1541869814
  H         3.2792862768        6.1724349651       29.9120691424
  C         1.9135712555        5.8791447749       31.2818809396
  H         5.1773588405       -1.6246763098       32.5649164050
  C         4.7161299047       -0.0916362323       33.7393954122
  H         5.0196970567        0.4204813249       19.4529257790
  H         5.8764267250        0.3397731405       17.8762545838
  C         4.1585847797        1.7765609817       18.0054044294
  H        12.7529498669        0.0542283985       21.3870741648
  H        12.9756486258        0.5030529025       19.8094691267
  C        13.9597660941        1.9154109538       21.0142921953
  N         9.9478165205        8.0873567889       17.9554812057
  C        10.2376278868        7.9761695158       15.7139616182
  C        10.3408331795        5.9140472953       14.4906831261
  H        10.2235170194        4.1537949383       15.5152835686
  H         1.5362923403        5.0242836257       31.9024256492
  H         2.5927392794        6.4019207742       31.9375672705
  H         1.0447449539        6.4833154508       30.9470124191
  S         4.4818351409        1.5388950123       34.1443493575
  C         4.5463212031       -1.0189040697       34.8775642316
  H         4.0690931407        2.6625926358       18.6687390273
  H         4.5386986594        2.0763518040       17.0249951599
  C         2.8457517435        1.0332657061       18.0436732020
  H        13.9342584899        2.8206299761       20.3828807224
  H        14.7495668935        1.2014111086       20.7815267908
  C        13.9057290195        2.3246033553       22.5315171015
  S         9.9984400774        9.5790698005       17.4735774815
  N        10.4092805476        9.3164173541       15.9238695752
  C        10.4156241998        7.4038349913       14.4397088156
  H        10.4874524204        5.4073737578       13.4962911890
  C         4.1282040749        0.9986944366       35.7972176968
  N         4.1945091730       -0.3294212526       35.9982560861
  O         4.8273940794       -2.2174446899       34.7631704618
  H         2.0122096857        1.7310905203       17.7434392516
  H         2.6303675301        0.7475833236       19.0815852766
  C         2.7821022619       -0.1911004589       17.1588872795
  H        13.0441325571        3.0014072019       22.7104630744
  H        13.5746950995        1.5538409215       23.2096262012
  C        15.1336303228        3.2086294680       22.9994838932
  C        10.6597579293        8.1961454587       13.2929794402
  S         4.0049696095        2.0390340426       37.1931389179
  C         3.9325714954       -1.0317348468       37.2718384652
  H         2.6462995383        0.0100736111       16.0452370918
  H         3.8022586244       -0.5866321667       17.3428145162
  C         1.7223707904       -1.1671524815       17.5018387052
  H        15.0169574002        3.5011109439       24.0575542896
  H        15.2611476210        4.1440251787       22.4094295226
  C        16.3747361798        2.2953158668       22.9678325793
  H        10.4065524889        9.2667403147       13.3984528036
  C        11.2442653302        7.9036042207       12.0704646865
  H         3.1111787900       -0.5555977776       37.8419306047
  H         3.6119318432       -2.0749193981       37.0467761744
  C         5.2570461192       -1.1996341633       37.9708854310
  H         1.6391149084       -1.8825562999       16.7127472192
  H         0.7472230463       -0.7820679546       17.6279188574
  C         1.9610045639       -1.9072286974       18.8385833238
  H        16.9106463939        2.4422341571       23.9934278281
  H        16.1554247444        1.2601627602       23.0683073871
  C        17.4315375181        2.4605072853       21.9544367948
  S        11.8863907813        6.4536887244       11.5926676317
  C        11.2737966786        9.0087686805       11.0658038512
  H         5.1790941475       -1.9382215653       38.7655723910
  H         6.0905502407       -1.5361197790       37.4146934562
  H         5.5763487542       -0.3068862727       38.4925224571
  H         1.7449388315       -1.2687601340       19.7469066979
  H         3.0665952984       -2.1453947189       18.7240242072
  H         1.3357104375       -2.8022201700       18.9019341461
  H        17.0305040451        2.9015799101       21.0277416617
  H        17.8085664405        1.3481831009       21.8220880779
  H        18.2349559566        3.0596485619       22.3448326076
  C        12.0798069828        7.1854783956       10.0064524916
  N        11.8825791729        8.5305342218        9.9514787005
  O        11.0741228826       10.2160878918       11.2711922701
  S        12.8925796908        6.5547514311        8.5982544127
  C        11.9603845490        9.3928911779        8.7803216825
  H        12.4181466540       10.3265692029        9.1857965350
  H        12.6388821202        9.0619344427        8.0572510041
  C        10.6867083151        9.6240199959        7.9969969320
  H        10.5271597631       10.6137627357        7.7373279197
  H        10.7012384117        9.0952873335        7.0329489665
  H         9.9224961718        9.2418979064        8.5336826807
  H        21.4721170092        8.7218665783        3.5687090708
  C        22.0656205600        9.5404654221        3.4043060196
  H        22.9470189551        8.9354146119        3.1196606772
  C        22.3176758534       10.3117631031        4.6872157770
  C        21.5709612590       10.3561753801        2.2038351610
  C        21.0738284011       10.6024251474        5.4598329940
  H        23.0684821516        9.7016848524        5.2522889173
  H        22.7926786538       11.2172479174        4.3604895506
  H        20.7305517155       11.0706439699        2.4161363857
  H        21.3038700662        9.7372495581        1.2688927242
  H        22.4027328403       10.9025974726        1.7385133710
  C        20.4487579302        9.3743248998        6.1819740967
  H        21.3276318085       11.3550860611        6.1704777205
  H        20.2945938449       11.0515899525        4.8394372781
  C        19.7103491466        9.6122398786        7.4987768854
  H        21.1806511480        8.6342197933        6.4072919259
  H        19.7444696895        8.9003537447        5.4235317512
  C        18.4871616706       10.5008939120        7.3438938577
  H        20.4326601430        9.9256787788        8.2301633300
  H        19.3943228208        8.6636708413        7.7982498986
  C        17.2256850883        9.8406313611        6.6674362400
  H        18.1446078887       10.8975994425        8.2855308084
  H        18.6844944790       11.3090400192        6.6964695896
  C        16.0076690179       10.8075013818        6.4926590167
  H        16.9695621744        9.0313235628        7.3536342467
  H        17.5351809177        9.4118248551        5.7092314657
  C        16.4826083141       12.1319390501        5.8699931607
  C        15.7340118301       11.5440313296        7.7571231727
  C        14.6867485324       10.1765998758        5.9673697218
  C        16.3030008477       13.2092581796        6.6865689847
  C        17.0476750931       12.4603911580        4.6317654250
  C        15.8762605321       12.9025193810        7.9430700932
  C        15.4975881363       10.8672067103        8.9182831943
  H        14.8672092484        9.7524246351        5.0174983529
  H        14.4320367471        9.3308794560        6.6335586883
  C        13.4663760617       11.0730164077        5.8937609045
  S        16.8278502420       14.6475880004        5.9992988729
  C        17.2460379894       13.7914488260        4.5729520415
  H        17.1938388341       11.6491519625        3.9093219608
  C        15.6205997136       13.5144820763        9.1796779963
  H        15.3779712775        9.7464851358        8.8077850154
  C        15.1900397487       11.4284556119       10.1491619980
  H        13.7121522725       12.0557097288        5.5135439390
  H        13.0090586101       11.2005945061        6.8599185543
  C        12.4755882853       10.5070521603        4.8376744102
  C        17.6658585976       14.4939172243        3.3162532997
  C        15.3030706646       12.7982184332       10.3339199472
  H        15.8055795947       14.5272536220        9.3225483563
  C        14.8175670969       11.0052742732       11.4746457810
  H        11.5484717425       10.3980346443        5.3784475220
  H        12.6284903970        9.4430846992        4.6545829530
  C        12.4276247205       11.2753570068        3.5325913045
  C        17.6956001899       15.9033297360        3.0886830987
  C        18.1659224781       13.7156112433        2.1908471295
  C        14.9815768229       13.4304023443       11.7063177878
  C        14.6702097695       12.0665372366       12.3216111617
  S        14.6910464410        9.5053302606       12.2186520623
  H        13.4381609414       11.5096031210        3.1967722096
  H        11.9407557643       12.1402004289        3.7265327582
  C        11.8017262700       10.4215931477        2.3966662253
  N        17.4186722331       16.8833137818        4.0630820762
  C        18.0589864423       16.4737815669        1.8735190434
  C        18.5656451067       14.2442071885        0.9626495457
  H        18.3265789383       12.6410162587        2.3072246627
  C        13.7256609495       14.3881157165       11.5506458079
  C        16.2582173127       14.1378075114       12.2558078409
  C        14.3300194849       11.6548552214       13.6516275550
  C        14.3234169140       10.3046498000       13.7308380001
  H        11.3327768818        9.6184482044        3.0068467744
  H        11.0625626854       11.0584159447        1.8355443691
  C        12.8281111656        9.7753115750        1.4246854519
  S        17.5550197141       18.3609623554        3.3963810124
  N        17.8843989851       17.8469814910        1.8767138890
  C        18.5096425933       15.7105329332        0.7651138908
  H        18.9696655101       13.5428735026        0.2015633876
  H        13.9031387466       15.2682409292       10.9559709964
  H        13.4312750949       14.7903592138       12.4969530142
  C        12.5730429651       13.6142381930       10.9874682215
  H        16.6899098390       14.7363289306       11.4094902708
  H        15.8867052525       14.7643744103       13.0416947915
  C        17.3557126309       13.1732911931       12.7597179586
  H        14.1400382900       12.4181350625       14.4139083603
  C        14.0677085863        9.4599281570       14.9162055694
  H        12.4033594056        8.8784357788        0.9496712646
  H        13.7085201301        9.4145613518        2.0360888867
  C        13.2923858932       10.7199310267        0.2722811249
  C        18.8183732510       16.4064687150       -0.4249516644
  H        12.8317361629       13.2659043081       10.0317401217
  H        12.3824813785       12.6419172208       11.4139887594
  C        11.2287023590       14.3062692537       11.1281590174
  H        17.4778419621       12.3551563395       12.0385075701
  H        16.9496027973       12.8309978083       13.6858070686
  C        18.6778819193       13.7614226715       13.0603218901
  C        13.8868167505        8.0338887743       15.0214831850
  C        13.7551526798       10.2048005448       16.2268392780
  H        13.2538068746       11.6638821878        0.7319652956
  H        14.3119736968       10.5168769960       -0.1243113479
  C        12.3080168400       10.7598800379       -0.8663647188
  H        19.0128620409       17.4317815529       -0.2741680259
  C        19.1673684111       15.9669236305       -1.6816263912
  H        11.2896944643       15.3474611820       10.8490606829
  H        10.8246581534       14.2918823961       12.1338056699
  C        10.2673667447       13.6581860615       10.1099982435
  H        19.3570613293       13.3208302025       12.2443733871
  H        18.7527840157       14.8362545439       12.8528275495
  C        19.2857192843       13.4089924650       14.4540916231
  N        14.1483333577        7.1461620267       13.9724681880
  C        13.7190294496        7.3435740381       16.2408451906
  C        13.3329230903        9.4899821063       17.3213426390
  H        14.0107799535       11.2349880792       16.2621249134
  H        12.2667465902       11.7805679612       -1.2853276661
  H        11.3176940446       10.4796047522       -0.5412988115
  H        12.5909678292       10.0920740876       -1.6531251832
  S        19.2940404481       14.4005249537       -2.2821229632
  C        19.3072513427       17.0474643476       -2.7016982218
  H        10.5806592666       14.1183383958        9.1870562554
  H        10.4374269669       12.6204970957        9.9956254114
  C         8.8056995163       13.9521476468       10.3474221434
  H        19.4451082642       12.3144781932       14.5629520397
  H        18.6289377825       13.7917554528       15.2611639153
  C        20.7380150041       13.9095975501       14.6766976120
  S        14.1014374891        5.5751245353       14.5265080004
  N        13.7969997845        6.0019782477       16.0924221092
  C        13.3628690259        7.9847717152       17.4641288956
  H        13.1656574540       10.0552684578       18.2466187008
  C        19.5897034686       15.2064986073       -3.8773915057
  N        19.5383170713       16.4913817362       -3.9286221725
  O        19.3389612832       18.2591368826       -2.3978076703
  H         8.5033882974       13.5089980133       11.3196162947
  H         8.8039523567       14.9777188091       10.5143924758
  C         7.9077141855       13.5209201190        9.1490001852
  H        21.2550785506       13.2455442582       15.4689839897
  H        21.3685662346       13.9099555996       13.7596420022
  C        20.6620026101       15.3272347038       15.2857525132
  C        13.2527977304        7.3393984491       18.7219399329
  S        19.9124756112       14.3643588408       -5.4370711867
  C        19.4627740898       17.2862609384       -5.1291349340
  H         8.4925007743       13.4337510366        8.2123091893
  H         7.5612909322       12.4754611727        9.3648687794
  C         6.5512268601       14.1606806688        8.9612193571
  H        20.2299555203       15.0983521561       16.2530609614
  H        19.9305459543       15.9054841836       14.7002623772
  C        21.9842809301       16.1055477311       15.3756269577
  H        13.7462693590        6.3527826589       18.5216673265
  C        12.7368033152        7.6689529312       19.9436903700
  H        20.0850902990       16.7707644268       -5.9146773586
  H        20.0197528812       18.2049355695       -4.9114798021
  C        17.9970928739       17.5370700541       -5.6596673365
  H         6.0423607352       13.7154619246        8.0584433666
  H         6.8200102807       15.2543947604        8.7849774553
  C         5.5604741209       13.9761329374       10.0920496265
  H        22.0895801883       16.6069148071       16.3683650757
  H        22.8660821004       15.4831133637       15.1671280607
  C        22.0378108786       17.2369482480       14.2988443943
  S        12.1360958434        9.1619868554       20.5271109602
  C        12.5520802982        6.5475430850       20.9416651606
  H        17.7815368933       16.6966275137       -6.2969219349
  H        17.8465264096       18.3354400717       -6.3406334028
  H        17.1361876864       17.5369944982       -4.9670904644
  H         4.6086558564       13.6623882253        9.8357833497
  H         5.9144253410       13.2415383871       10.8032201860
  H         5.4834271834       14.9509168640       10.5908808448
  H        21.0395207599       17.6706766709       14.0131286953
  H        22.7162907939       18.0542342716       14.6130475926
  H        22.3972888446       16.7808021764       13.3396928732
  C        11.6126041878        8.3722558948       21.9391451698
  N        11.8970408760        7.0401901945       21.9996837932
  O        12.9049781601        5.3945849239       20.7431037118
  S        10.9687647021        9.0554829918       23.4238638697
  C        11.6264352134        6.1746698242       23.1124543108
  H        11.5879627492        5.2144863041       22.6072539461
  H        10.6410933480        6.3387466770       23.5202322026
  C        12.8557587698        6.1897502863       24.0807408979
  H        12.9091804085        5.3636614976       24.7834290297
  H        13.0362519970        7.0434721292       24.7129446656
  H        13.7173831443        6.0451883143       23.5176900686
