352
 i =    10200, time =    10200.000, E =        23.9301191428
  H        11.6190943790        6.9591498977       32.2842090229
  C        11.5934491518        5.8550217386       32.3048869676
  H        12.5264923465        5.3983022259       31.9622132432
  C        10.4247112834        5.4786721260       31.3281045054
  C        11.3353572606        5.3025950058       33.7058823078
  C        10.6226636778        6.1841972795       30.0232929704
  H        10.4721227722        4.3607255474       31.2836582677
  H         9.3902884121        5.6538608400       31.6169459494
  H        11.6414176082        4.2351581646       33.9052155873
  H        11.8694317876        5.9454139039       34.4257695102
  H        10.2817760648        5.3869958116       33.9412920745
  C         9.9018340447        5.3815541612       28.9489750235
  H        11.6581917381        6.0731611136       29.7763948301
  H        10.2118080425        7.2477217127       30.0938449488
  C        10.4433881867        5.4974472711       27.4573682366
  H         9.8893912242        4.2891265344       29.1100655672
  H         8.8879109563        5.7017635372       28.9827554820
  C         9.4165478675        4.8856792333       26.5444566794
  H        11.3426090942        4.8880728157       27.4439625974
  H        10.7204190834        6.5286618440       27.1265262177
  C         8.2248350572        5.7024016032       26.2677622796
  H         9.9139011106        4.7946095461       25.5845368598
  H         9.1315464930        3.8969291889       26.9771610359
  C         7.0710239703        4.9149206613       25.6158734336
  H         7.7883281592        6.2168255597       27.1382577554
  H         8.5778329031        6.4751939529       25.5605203528
  C         6.7718005224        3.5900775360       26.3402822597
  C         7.5786382279        4.1866059898       24.4337798047
  C         5.8464232292        5.9099982139       25.3804568360
  C         7.1030767200        2.4688818423       25.5967014012
  C         6.2674716080        3.3250490356       27.6509627982
  C         7.5940520813        2.8573509236       24.3380598570
  C         8.0541248365        4.8195462313       23.2668213959
  H         6.0924154136        6.7153162995       24.6478442982
  H         5.6145147814        6.4404379962       26.2855087416
  C         4.5708391963        5.1424750776       25.0375503996
  S         6.6546257891        0.9958756463       26.3567195808
  C         6.2019370320        1.9502531176       27.7910920800
  H         6.1431542428        4.1006513439       28.4076080436
  C         8.1105698614        2.1905670390       23.2564435624
  H         8.0185738846        5.9134262623       23.2503557551
  C         8.5793683451        4.2131107884       22.1455477319
  H         4.8892256145        4.6322016111       24.0695295533
  H         4.4408298097        4.3154058242       25.7361813479
  C         3.2659499083        5.8944264482       25.1045977456
  C         5.8551245724        1.3042290424       29.0859732829
  C         8.4833351052        2.8415337656       22.0600276863
  H         8.2001420049        1.0493699859       23.1591955272
  C         9.0649385501        4.6499795227       20.9796536950
  H         2.5862041353        5.4516137077       24.4571273793
  H         3.3717387976        6.9112636784       24.6533500080
  C         2.5672167165        6.1439224174       26.4589107405
  C         5.8571695004       -0.0647724622       29.2872243296
  C         5.2446425522        2.1886324723       30.1544060607
  C         9.0179281577        2.1673308304       20.8137163055
  C         9.3219500638        3.5741772981       20.1437729313
  S         9.1806294734        6.2434431628       20.2847624786
  H         1.7729237420        6.8061956670       26.3669158724
  H         3.1180131738        6.5942804121       27.2660399580
  C         1.9638657244        4.8895093301       27.1723846598
  N         6.2178604931       -1.0557160567       28.3591188349
  C         5.5174098521       -0.6141047162       30.5285011503
  C         5.0568633080        1.6122666688       31.4092412380
  H         5.0246717072        3.1838328659       29.9370513954
  C         7.9611406464        1.3956554541       20.0137079177
  C        10.3446690143        1.4168907785       21.0643925581
  C         9.7587431380        4.0451914644       18.8953890551
  C         9.8002597630        5.3998534784       18.7516762331
  H         1.4838670397        4.3326987714       26.3786350903
  H         2.8304494507        4.2275101131       27.4318931508
  C         0.9347938144        5.1173052056       28.3707351290
  S         6.0433469914       -2.4922794138       29.0577857187
  N         5.5122337977       -1.9806455204       30.4966048052
  C         5.1838835327        0.1351604676       31.6863958026
  H         4.6498314967        2.2095907892       32.2072696297
  H         7.6655954510        0.5064336208       20.5699825113
  H         8.4496303407        1.1078259187       19.1156383484
  C         6.6659770207        2.2565428766       19.5740541380
  H        10.5418527538        0.7159690919       20.2405994055
  H        10.1450188589        0.8862298458       21.9644999513
  C        11.7183163183        2.2640677280       21.1197394900
  H        10.0400148326        3.2919986635       18.2177061338
  C        10.0821489432        6.1013868921       17.4254402179
  H         0.5942804321        4.0931917288       28.6480491368
  H         0.0573903232        5.6578122951       28.0483689591
  C         1.5978391618        5.8194583406       29.5585653442
  C         4.9438911819       -0.4991834161       32.8914261971
  H         6.9155815786        2.9094831943       18.7314055013
  H         6.4056497714        2.9944603129       20.2481004661
  C         5.3984136008        1.4447788424       19.2370344792
  H        11.5156605654        3.0409019163       21.8714569940
  H        11.8882141456        2.7739461308       20.2303242572
  C        13.0279651777        1.5209017109       21.4430642541
  C        10.1708536088        7.5108647934       17.2571264199
  C        10.1628850341        5.2974563542       16.1838185635
  H         2.6396640582        5.3941800723       29.5366640704
  H         1.6302790701        6.9578213743       29.2332824038
  C         0.8366194505        5.5923742021       30.8982421625
  H         5.0491623720       -1.5928433071       32.8251534080
  C         4.7055737979       -0.0326190408       34.1870570807
  H         5.3708486947        0.4685976734       19.7648627023
  H         5.4854512646        1.1537847409       18.2429784970
  C         4.1021643876        2.0817690397       19.4279231484
  H        12.9952973182        1.2062190988       22.4472387210
  H        13.2308169229        0.6521641495       20.8790218105
  C        14.1758403666        2.4640568585       21.2078934877
  N         9.9440250990        8.4800720077       18.2489825558
  C        10.3905422518        8.0770500848       15.9620999900
  C        10.4452730847        5.8880566757       14.9408776521
  H        10.0974468365        4.1992002711       16.2537680389
  H        -0.0690778021        6.2281556479       30.8516849517
  H         0.5320712874        4.5308158966       30.9533394898
  H         1.5424818534        5.6744763499       31.6989778541
  S         4.2783709649        1.5377423009       34.6377174649
  C         4.7229237285       -1.0723519877       35.2291408073
  H         3.9897847557        2.4762557053       20.4221246472
  H         3.8909040906        2.8991604429       18.7526802612
  C         3.0029280875        1.0559475579       19.3104894625
  H        13.7787685158        3.4458943293       20.8181982711
  H        14.7792699917        2.0742981020       20.3778329499
  C        14.8902607375        2.7508793581       22.5386291954
  S        10.1809371207        9.8944496162       17.5764587318
  N        10.5896431591        9.4266374049       16.0461406699
  C        10.5332109747        7.3277593615       14.7613037261
  H        10.3506041297        5.2515413370       14.0770501569
  C         4.2153245957        0.8728346930       36.2960539432
  N         4.3882207640       -0.4807494929       36.3890342716
  O         4.8581814865       -2.2507034942       34.9780976168
  H         2.0812298318        1.3816154451       19.8125157071
  H         3.2677111510        0.1065112607       19.8533549878
  C         2.7789478668        0.7706467377       17.8438148529
  H        15.6194706831        3.5917935605       22.4150216198
  H        14.2369439965        2.9983208784       23.3455042047
  C        15.6113758581        1.5293765145       23.0152244844
  C        10.9054799740        8.0742014090       13.5468781499
  S         3.7812960085        1.8577045120       37.6777457246
  C         4.4863749647       -1.1707639398       37.7460302922
  H         1.7584296920        0.8307353402       17.6962701216
  H         3.2143941863        1.5538271939       17.2140363962
  C         3.2909029691       -0.6950437065       17.5355699479
  H        15.7634430831        0.9559334078       22.1130989315
  H        14.9546626766        1.0372696678       23.7911102851
  C        17.0014366326        1.8250838080       23.6796723842
  H        10.6904252087        9.1174204322       13.6586737119
  C        11.4606558765        7.7088509939       12.3026981899
  H         3.7325724627       -0.7880887180       38.3959862867
  H         4.1686992439       -2.2293017420       37.8682610911
  C         5.8895230093       -1.1647475834       38.4105592074
  H         4.2483574551       -0.8709505230       17.9873106264
  H         3.3836161219       -0.8889381236       16.4669457468
  C         2.2932699168       -1.7365454419       18.0705007452
  H        16.9182900234        2.4835187407       24.5307179773
  H        17.4736852391        0.8850547874       23.9995085764
  C        17.9275828959        2.5149002170       22.5310527183
  S        12.0610453823        6.2071908434       11.7951353610
  C        11.7028542271        8.8368611205       11.3109007829
  H         5.8566217646       -0.4573609927       39.2683919995
  H         6.1459402905       -2.1543802457       38.8272968393
  H         6.6829101360       -0.8004412008       37.7023827882
  H         2.5407130532       -2.7157429713       17.5743329526
  H         1.2475972859       -1.4040516078       17.8730185318
  H         2.4783180211       -1.8739391130       19.1629442998
  H        18.9019460598        2.5355223570       22.9934604748
  H        17.7504413627        3.5476810852       22.3450769594
  H        17.9830962732        2.1116061740       21.5261531656
  C        12.8663749884        7.1323948549       10.4604995462
  N        12.4207382425        8.3796231355       10.3401084904
  O        11.0946178638        9.9017183301       11.3339781114
  S        13.6885573865        6.3904077583        9.1569393106
  C        12.6285758723        9.1797017777        9.1368664668
  H        13.0299414553       10.1075343958        9.3198470355
  H        13.4831842816        8.9012810793        8.4476661034
  C        11.4262557984        9.1027968291        8.2102601332
  H        11.0503520284        8.0382667566        8.2241622873
  H        10.6051613559        9.7971317032        8.4896078915
  H        11.5891727685        9.3823880609        7.1962076062
  H        21.0322120725       11.0582281279        3.4080918039
  C        21.4895118943       10.0394770192        3.5241533537
  H        20.7059688425        9.2811075850        3.6218618296
  C        22.4294465198       10.1028114468        4.6962002776
  C        22.1991928927        9.7722113494        2.1236254693
  C        21.8455994380       10.5724403998        6.0401485755
  H        22.9064164934        9.1615301367        4.7097509221
  H        23.3690279172       10.6623233187        4.4565696477
  H        23.0465762171       10.3910809045        2.1841619864
  H        21.7109847112       10.1040499306        1.1666078302
  H        22.6772530183        8.7973905676        2.0254590891
  C        21.1819908108        9.4047421653        6.7665166176
  H        22.6003407297       10.9956737625        6.6865252450
  H        21.1543069242       11.3849523587        5.8330378387
  C        20.4974832519        9.7151178695        8.0900546946
  H        21.8592395172        8.5737114167        6.7989994957
  H        20.4364373866        9.0904254034        6.0589770159
  C        19.2964158491       10.6085313240        7.9533337866
  H        21.0807544172       10.1105582542        8.8367395893
  H        20.0644959875        8.7063715148        8.4287366457
  C        18.1889165886        9.9443132607        7.3294129974
  H        19.0631397075       10.9303954397        8.9072667679
  H        19.5493982694       11.5673580669        7.5268785153
  C        16.8217187626       10.7435992496        7.1203364193
  H        17.8958198551        9.0703493194        7.9090950815
  H        18.5672020335        9.6123525370        6.3294860635
  C        17.1287009222       12.1239828465        6.4959878134
  C        16.2992589587       11.4201418073        8.3092437937
  C        15.8077672303        9.9217432462        6.3850861248
  C        16.8609555401       13.2328001899        7.2917248080
  C        17.6357608310       12.4569634782        5.2512534874
  C        16.3651140308       12.8125048832        8.4795064883
  C        15.8290412147       10.6879805509        9.3813177429
  H        16.2881173645        9.6550789958        5.4846098953
  H        15.5516054520        9.0757682485        6.9462303780
  C        14.5297448870       10.6969463789        6.0799911499
  S        17.2544878623       14.7485010016        6.4355370664
  C        17.7277488217       13.8086457673        5.0979314756
  H        17.7394830638       11.7130320771        4.5463952747
  C        15.9574552677       13.3997302538        9.6554071672
  H        15.7863983648        9.6155688241        9.4055082290
  C        15.4938578841       11.2899690327       10.6356544296
  H        14.6919287666       11.6615107826        5.5325844487
  H        14.0463870648       10.8445452520        7.0419451785
  C        13.6246109196        9.9877722837        5.1626358741
  C        18.1164768194       14.5145611095        3.8142572268
  C        15.4386116764       12.6452852290       10.7352168880
  H        15.8492245893       14.4362409424        9.7714662438
  C        15.0481860906       10.8236562042       11.8370615550
  H        12.8412037257       10.6664278409        5.1422487904
  H        13.1938370910        9.0786112024        5.4701839461
  C        14.2286219599        9.7710825906        3.6863281839
  C        18.0831462577       15.8981478401        3.5429021227
  C        18.5146656988       13.6456104928        2.6808647314
  C        15.0942713570       13.3245530248       11.9948744490
  C        14.8489595218       11.9150803725       12.6538957820
  S        14.7127261899        9.3289030227       12.6277042478
  H        14.9996739848        8.9689272021        3.7551212958
  H        14.7743748568       10.6586850207        3.4458617063
  C        13.1396810452        9.4705690332        2.6314652951
  N        17.7041055987       16.9875440125        4.4295475607
  C        18.3125435634       16.3905487355        2.2896707012
  C        18.6980863797       14.1476458144        1.3907676579
  H        18.5136826022       12.5707243692        2.8406683543
  C        13.7827880945       14.0693357806       12.0145681841
  C        16.2226291177       14.1185975763       12.6880402801
  C        14.4664964964       11.5019490401       13.9421780450
  C        14.3664872168       10.1837251461       14.1003528219
  H        13.1847570972        8.3963167761        2.6050476797
  H        12.1195187208        9.7061511520        3.0012143383
  C        13.5588955806        9.9842860717        1.2494947994
  S        17.7039810077       18.4199319083        3.6338555316
  N        18.2525802587       17.8177117398        2.2247608412
  C        18.6448872870       15.5971252794        1.1940898824
  H        18.9240473356       13.4977367653        0.5730509658
  H        13.9606560551       15.0068897669       11.4799049575
  H        13.6673835597       14.2518869025       13.1087432847
  C        12.4848570051       13.3757432205       11.4940956282
  H        16.6000896521       14.8394893644       11.9987208249
  H        15.8183449628       14.6468363750       13.5881202505
  C        17.3804663082       13.3129373511       13.1936632027
  H        14.4543840791       12.2210842680       14.7576287189
  C        14.0052890230        9.4987982949       15.4062568640
  H        14.4210670522        9.4407432688        0.8328247567
  H        13.7495630036       11.0952630354        1.3609724002
  C        12.4006303256        9.8986659045        0.2651813709
  C        18.7287499923       16.2271898972       -0.0996364977
  H        12.7810741280       12.8965038538       10.5281646651
  H        12.2094413058       12.5172541691       12.2098891916
  C        11.3981112117       14.3753396582       11.2910388812
  H        17.8184145001       12.7892356640       12.3160310391
  H        17.1685921047       12.6082130945       14.0011957999
  C        18.4509239190       14.2162327315       13.8576383451
  C        14.0213019792        8.0673203464       15.5973976326
  C        13.8484486521       10.2621119957       16.6218266367
  H        12.2148903030        8.7848160988        0.2108289945
  H        11.5076767804       10.4394483761        0.4763134650
  C        12.8790710638       10.3252569896       -1.1301699284
  H        18.5658815865       17.2949685934       -0.1131293198
  C        19.1042445364       15.7642646805       -1.3056615305
  H        11.5651481523       14.9928993114       10.3878194803
  H        11.4861296242       15.0118506064       12.2081329593
  C         9.9756035175       13.8912768311       11.1789555456
  H        19.1346797646       14.6949368911       13.1157752658
  H        17.9359518876       14.9495380904       14.4700603393
  C        19.3204767443       13.3327770564       14.7729487548
  N        14.1637378434        7.1262889305       14.5623574851
  C        13.8060333608        7.4190712711       16.7840681098
  C        13.5613299550        9.6173065206       17.8357687571
  H        13.9288273232       11.3568404690       16.5587663303
  H        13.4853744759       11.2723496481       -1.0615193443
  H        11.9696132331       10.5798136416       -1.7380362224
  H        13.3147513683        9.4920816337       -1.7739984612
  S        19.4802400656       14.2099121111       -1.8282838451
  C        19.0448488697       16.7657583446       -2.4154153703
  H         9.7425426932       13.0504364006       11.7544618855
  H         9.3776990414       14.6902159098       11.6219965513
  C         9.5556171140       13.5739263246        9.7239334969
  H        19.3299403998       12.2640455410       14.3995489774
  H        19.0092679090       13.2860158542       15.8008532680
  C        20.8271619612       13.7210576880       14.7966835086
  S        14.1666686652        5.5824810295       15.1269871554
  N        13.8094124514        6.0422085833       16.6477334524
  C        13.4712693723        8.1294362464       17.9342975418
  H        13.3383951874       10.2343677759       18.6824108287
  C        19.5671288361       14.9027008086       -3.4592449161
  N        19.4285789824       16.2498407314       -3.5262949307
  O        18.7752051932       18.0072413173       -2.2314443355
  H         9.8792363422       14.3604969107        9.0406726936
  H        10.1662504505       12.7280911790        9.3808596313
  C         8.1360743054       13.1746176483        9.6211237749
  H        21.3870240989       13.1253088413       15.4829790803
  H        21.2252000483       13.5186140426       13.7794115064
  C        20.9419775796       15.2370125735       15.1082183755
  C        13.0331434514        7.4218064344       19.0523819374
  S        19.8822495552       14.0176457435       -4.9302870992
  C        19.2719882457       16.9455688595       -4.8507565601
  H         8.0024539839       12.8729359507        8.5572318051
  H         7.9305921129       12.3104091061       10.1996221665
  C         7.0875195192       14.2654431287        9.9402969858
  H        21.2365989854       15.2615247513       16.1988775981
  H        20.0423423950       15.7983948433       15.0205178336
  C        22.0366681971       15.9769120224       14.2574120844
  H        13.0240194676        6.3824816331       18.9199315446
  C        12.4946593002        7.8049343219       20.2570887597
  H        19.9888225532       16.4984564733       -5.5072748807
  H        19.4583793942       17.9899015802       -4.7334002360
  C        17.8509733270       16.6424399009       -5.3528058290
  H         7.3626377934       15.0879730010        9.3447008033
  H         7.1864459795       14.5828785907       10.9823221816
  C         5.6724485614       13.8576610239        9.5081587485
  H        22.5278648491       16.7525879171       14.8915347540
  H        22.7360962093       15.1826556909       13.9973949839
  C        21.4449687109       16.7026172570       13.0403381356
  S        12.0627199999        9.4029346546       20.6638887886
  C        12.3487725956        6.7733600653       21.3425660047
  H        17.4288753289       17.5463901729       -5.9480731517
  H        17.1734997077       16.5001126944       -4.5029763543
  H        17.6318680061       15.6793502326       -5.9189993841
  H         5.6195558534       13.7128596067        8.4375564727
  H         5.2568666952       13.0783380649       10.0809761602
  H         4.9770972664       14.6448562906        9.8139065926
  H        20.5726087577       17.3622529856       13.0338175522
  H        22.2642359910       17.3127169822       12.5989404715
  H        21.2437542712       15.9035580379       12.3491930277
  C        11.6796122708        8.7141091381       22.2606806698
  N        11.7837946706        7.3385027909       22.3720613871
  O        12.5843249227        5.5960556126       21.1637031108
  S        11.2147811965        9.7549366997       23.6269519010
  C        11.7329925893        6.4888509639       23.6158860477
  H        11.2476914287        5.5861204197       23.3057974353
  H        10.9930013994        6.9137995427       24.2400501033
  C        13.0379459393        6.3699219287       24.4517316730
  H        13.4974519772        5.3453537186       24.4699746886
  H        12.9466823818        6.6447207857       25.4585644909
  H        13.7108315435        7.0464147915       23.9370111546
