352
 i =    91300, time =    91300.000, E =        25.2126715519
  H        10.1708969993        6.9592886291       31.3098671236
  C        11.1245332279        6.7395970833       31.7025144623
  H        11.5911603417        7.6477159036       31.8599874692
  C        11.8955230390        5.8674885936       30.6877149056
  C        10.9271166703        5.8931212948       32.9942466095
  C        11.0791656998        4.7110361673       30.1012630051
  H        12.2215545791        6.6057166599       29.9352713632
  H        12.7816033452        5.4509836527       31.0843657265
  H        10.9634815870        6.4154055788       33.9422424342
  H         9.9628220256        5.4084905785       32.9169498568
  H        11.6463599719        5.0361779236       33.0921965297
  C        10.0192169182        5.3423036314       29.1051379798
  H        10.6332151836        4.0806381795       30.8775302503
  H        11.8356306048        4.0928517432       29.6617870597
  C        10.5828591682        5.2811900873       27.7050970821
  H         9.1168712170        4.7440679231       29.1120949591
  H         9.9240105441        6.3955698497       29.3545810263
  C         9.6203754335        4.7554375522       26.7210046782
  H        11.5054008498        4.6814121018       27.7685303303
  H        11.0388989130        6.1922057762       27.2894486618
  C         8.3975039723        5.6000876013       26.5858264721
  H        10.1681965146        4.6590574057       25.7391017120
  H         9.4250382192        3.6912204394       27.0151002160
  C         7.3133819227        4.7954668396       25.7940149725
  H         8.0199195285        6.1108841406       27.4613012201
  H         8.7283576153        6.3685090246       25.9744814404
  C         6.8767526145        3.4793089262       26.3915494700
  C         7.7647054220        4.1129204573       24.4973210155
  C         6.1659511454        5.7143501412       25.4766727751
  C         7.0948538706        2.4104864887       25.5584664791
  C         6.3663916132        3.1278312163       27.6213701173
  C         7.6856273815        2.7526451124       24.3431907015
  C         8.1916068507        4.8086638202       23.4255835160
  H         5.5773637233        5.0935516251       24.7118098707
  H         6.5223739761        6.6328651791       24.9254896354
  C         5.2572362190        6.1657427287       26.6671827142
  S         6.6794892071        0.8980031274       26.3254374114
  C         6.3065089747        1.8176564280       27.8058831207
  H         6.1468701494        3.9076340845       28.3520429764
  C         8.1351534378        2.1723746728       23.1502238092
  H         8.2451420281        5.8641792334       23.5877631940
  C         8.5881937110        4.2718651548       22.1969574428
  H         5.7107650515        5.8490463095       27.5718464923
  H         5.0889716423        7.2260038201       26.7138405708
  C         3.8925106892        5.3649148331       26.5854889209
  C         5.8221681537        1.1169872324       29.0224205603
  C         8.4777702247        2.9287098507       22.0093359398
  H         8.0853840739        1.0841407684       23.0999438992
  C         9.0468102090        4.6866581156       20.9741094994
  H         4.1154014748        4.3780097729       26.4179234084
  H         3.4116498770        5.7060538243       25.6892707968
  C         2.9975234426        5.6513472807       27.7971017989
  C         6.0261472270       -0.2278935871       29.3198573147
  C         5.2101224660        1.9033831549       30.1484519731
  C         8.9349456262        2.2659686667       20.8279212784
  C         9.2002782201        3.5805361880       20.1455631357
  S         9.3815596252        6.1600130583       20.1910089120
  H         2.5360539378        6.6422578674       27.6863413816
  H         3.6285213356        5.7071089968       28.6765877722
  C         2.0200620816        4.5476161400       27.9147140714
  N         6.4936315648       -1.2080561934       28.4080530716
  C         5.6361412075       -0.8406720290       30.5177647510
  C         5.0358780669        1.3168392035       31.3718922409
  H         4.9162000078        2.9965406754       29.9675195199
  C         7.8772614113        1.4720763035       20.0572610587
  C        10.2522526642        1.4564608141       20.9317734620
  C         9.8075204552        3.9519105512       18.9504298110
  C         9.9093143403        5.3546438325       18.7597341869
  H         1.7219954961        4.3666556889       26.8940401954
  H         2.5245199096        3.6739450567       28.1824207957
  C         0.8915780048        4.9259041954       28.9128467762
  S         6.2976544472       -2.6820986485       29.0892644161
  N         5.6860723545       -2.2283992736       30.4636506124
  C         5.2621786648       -0.0865274383       31.6656197777
  H         4.4635686942        1.8594720326       32.0733698922
  H         7.5175777235        0.6694619389       20.6483301118
  H         8.3439164471        0.8930184829       19.3256310796
  C         6.7315260675        2.2888505660       19.6788156482
  H        10.5499357922        1.2164423056       19.8920028315
  H        10.1031476899        0.4410401039       21.4672970996
  C        11.4391444838        2.1788917199       21.4836517719
  H        10.1051530785        3.1173082354       18.2938572903
  C        10.0724516244        6.1328996455       17.4632998631
  H         0.1588194140        4.1455636244       29.1425575944
  H         0.4412540515        5.6536041617       28.2491405824
  C         1.3902307436        5.7390041326       30.1728169367
  C         5.0013428797       -0.7771574445       32.8624679720
  H         6.9168676012        3.0220365508       19.0135786719
  H         6.2948881061        2.7647660511       20.5491696751
  C         5.6266551430        1.3358089024       19.1277437034
  H        11.2052885715        2.6172228471       22.4326326494
  H        11.8617882272        2.9501834809       20.8188503055
  C        12.6232975441        1.2421071898       21.8492571367
  C        10.1351773086        7.5471717608       17.3022460157
  C        10.3820845491        5.3671286301       16.2137022797
  H         2.0783105993        6.5192385900       29.9525665889
  H         0.4707075192        6.2310606967       30.4960579162
  C         1.9641692043        4.8520774188       31.3593446331
  H         4.9919614627       -1.8436435527       32.9024076560
  C         4.7531003722       -0.2843644798       34.1225975411
  H         5.1473100799        0.7974617642       19.9217673189
  H         6.0848948682        0.5954979215       18.4927522304
  C         4.5444149959        2.0985813350       18.2798400094
  H        12.3406326376        0.6193602195       22.6956013559
  H        12.7635853989        0.4618921499       21.0699401246
  C        13.8336595788        2.0829087647       22.2087309689
  N         9.8117720601        8.5161024798       18.3401789196
  C        10.3602985337        8.1523037682       16.0680499905
  C        10.5543594992        6.0260795140       14.9569230008
  H        10.6104652372        4.2658757413       16.2980483311
  H         2.6109212314        5.3899511787       32.0965520770
  H         1.1838981349        4.6152181791       32.1141599816
  H         2.5850478555        3.9302460943       31.1520123051
  S         4.7946642794        1.4020166067       34.6304165990
  C         4.5767357751       -1.2211944823       35.2689991916
  H         4.6002688574        3.1584895760       18.5332326650
  H         4.9257042667        1.9220664504       17.2846412557
  C         3.0810393320        1.5272721602       18.3645121683
  H        13.6554617223        2.9297981364       22.7991122221
  H        14.2668455212        2.5854622262       21.3552938158
  C        14.9463945992        1.3128876810       22.9027637404
  S         9.8135054113        9.9503509625       17.6346881401
  N        10.1577134877        9.5171743866       16.0744077022
  C        10.6036985225        7.4797173123       14.8681411234
  H        10.7812031899        5.3200483424       14.0960220727
  C         4.4904093427        0.8006687731       36.3113473219
  N         4.4844752600       -0.5481798838       36.3993774461
  O         4.4618707217       -2.4200852845       35.1616965100
  H         2.4042167003        1.9521526535       17.6355358325
  H         2.7772782651        1.9786831462       19.2992238376
  C         2.9191485685       -0.0510869873       18.4906404228
  H        14.4890650538        0.7566123872       23.6970879814
  H        15.3175434416        0.6125783506       22.1900388838
  C        16.0227305247        2.2636141191       23.6321018648
  C        10.8573590042        8.2374666108       13.7090340303
  S         4.1607702136        1.7155042248       37.7697941927
  C         4.4020429771       -1.2481861919       37.6542976310
  H         3.3356100772       -0.5774758248       17.6070699262
  H         3.3944954833       -0.3888775067       19.5107396354
  C         1.4625667376       -0.4280367638       18.6550619151
  H        15.6490669418        2.6859994077       24.5782590261
  H        16.1649619225        3.0829255352       22.9078399026
  C        17.3688302929        1.5426715885       23.7445690463
  H        10.5651827226        9.2626781134       13.7530661388
  C        11.3914230696        7.8677371383       12.5520666987
  H         3.7846295586       -0.6321059261       38.3060707399
  H         3.8428642039       -2.1886431470       37.7328258011
  C         5.7890042694       -1.4990475292       38.2328277943
  H         0.8318556672        0.4492627266       18.6176683645
  H         1.2753599121       -0.8609043430       19.5794593825
  C         1.1693372640       -1.5562348981       17.6299572394
  H        17.9107689868        1.9041177300       24.6562462887
  H        17.1948858562        0.4853037752       23.8430430190
  C        18.1350272559        1.8308083820       22.5046405966
  S        12.0531763718        6.3399033337       12.0433706738
  C        11.4069950515        8.9313692660       11.5044976358
  H         6.1222417125       -2.5421978778       38.2272865292
  H         6.4769652873       -0.8832750422       37.7057557573
  H         5.9569784270       -1.1885223228       39.2454222692
  H         1.6458412217       -2.4872565776       17.9021389896
  H         1.5228753097       -1.2670885136       16.6718475468
  H         0.1526012446       -1.8915069526       17.5439475510
  H        19.1600523482        1.5554511716       22.5173711047
  H        18.1319275739        2.9189674943       22.4074273444
  H        17.6123779676        1.5665478609       21.6030723347
  C        12.1695784952        7.0995505226       10.4792096289
  N        12.0028246340        8.4913534016       10.4460663147
  O        10.8715197616       10.0646987414       11.7081582079
  S        12.7039753011        6.2223392723        9.0078587458
  C        12.0501015456        9.1994894330        9.1858423013
  H        12.1167588423       10.2720222081        9.3329644089
  H        12.9987908096        9.0295368730        8.6441204133
  C        10.8482705046        8.9121523980        8.3673696093
  H        10.2932307209        8.0686134652        8.7498402109
  H        10.1162837859        9.7370463916        8.2350467086
  H        11.1848726799        8.4612473907        7.4361838735
  H        21.1686468101       11.3475269713        2.8576141245
  C        21.5794991776       10.3663086865        3.1048026581
  H        20.8045670478        9.6121699343        3.3055747937
  C        22.4461483022       10.6106094613        4.3641837165
  C        22.4023969744        9.8987291876        1.8867715703
  C        21.7712150679       10.5286819733        5.6955417755
  H        23.4363277000       10.1462142114        4.4173050699
  H        22.7091415142       11.6511770136        4.3092772568
  H        23.2713410728        9.2943834047        2.1281935920
  H        22.8156699262       10.7713063919        1.4049249691
  H        21.6910181787        9.3260224342        1.1312405036
  C        21.2267091557        9.0816656099        6.0495569167
  H        22.5078481278       10.8215922598        6.4606043661
  H        20.9626624551       11.2812470859        5.7976446497
  C        20.2895192366        8.8654245215        7.2906161118
  H        22.1530498429        8.5103609864        6.2861516483
  H        20.7763565453        8.6777583394        5.1753204141
  C        18.8531692814        9.2424161139        6.7658368466
  H        20.6226513506        9.4157515101        8.1157301424
  H        20.3882447668        7.8151675785        7.6278222233
  C        17.9699781614        9.9136518765        7.8129347677
  H        19.1086811264        9.9102660778        5.9183141171
  H        18.4088348387        8.3636149856        6.3777274245
  C        16.7218255020       10.7222837991        7.3788541886
  H        18.5665511943       10.6494082071        8.4435575874
  H        17.6579330974        9.1409828871        8.5323707636
  C        17.1798053414       11.9593373863        6.5982446658
  C        16.3046351371       11.5159870341        8.5657786381
  C        15.5843934834        9.8194763611        6.6990500567
  C        16.8419999745       13.1041138128        7.3160047166
  C        17.7646683633       12.2694151990        5.3413119261
  C        16.3583347157       12.8255974569        8.6029714956
  C        15.8627764594       10.9113794041        9.7053851353
  H        15.9033277305        9.3562307626        5.7068613190
  H        15.4038559682        9.0380704996        7.4388925717
  C        14.3622491114       10.6472851578        6.4050696880
  S        17.1621421781       14.5282270843        6.4446680912
  C        17.7512765128       13.6366184784        5.0978752130
  H        18.2136452890       11.5907733444        4.6968624004
  C        15.9818253139       13.4840840332        9.7283306961
  H        15.8754958256        9.8635613687        9.7024250910
  C        15.3510891489       11.5190751002       10.8336032468
  H        14.6001928382       11.5706684109        5.9564952753
  H        13.9320271384       10.9592229899        7.3764806980
  C        13.2322886030        9.9064953532        5.6106031762
  C        18.1638121124       14.3728200458        3.8302713657
  C        15.4003557622       12.8651638338       10.8676685296
  H        16.0777434028       14.5348361401        9.7173553439
  C        14.8908353716       11.1805933361       12.0785760174
  H        12.3069486294       10.1244870307        6.1070998856
  H        13.3599576415        8.8415299993        5.5997097151
  C        13.1231891678       10.4892409311        4.1714617160
  C        18.0651179478       15.7708105982        3.5702925781
  C        18.8710189237       13.6093156595        2.8062826223
  C        14.8661467196       13.6600183138       12.0506471068
  C        14.6319701322       12.2856511186       12.8830732344
  S        14.6511196124        9.6799514123       12.8913777595
  H        13.6143461998       11.5041107907        4.0530746251
  H        12.0551708785       10.7643920108        3.9419942659
  C        13.5953651445        9.5084494278        3.0492386953
  N        17.7324624702       16.7952033391        4.4938178426
  C        18.3881077520       16.3263570674        2.3026915216
  C        19.1672103772       14.1892621817        1.6110565698
  H        19.1790546987       12.6493247109        2.9711385330
  C        13.5707429212       14.3822648794       11.7196051931
  C        15.9254684342       14.5811285563       12.6724493515
  C        14.2303845159       11.8578813908       14.2159010554
  C        14.2613390583       10.5133937794       14.3774069066
  H        14.5992868974        9.1382126952        3.1174280624
  H        12.8263612294        8.6835177905        3.0602346684
  C        13.4728510720       10.1596857735        1.6010157275
  S        17.5866074063       18.2369182450        3.8324046433
  N        18.1774291342       17.7708891047        2.3547653177
  C        18.8236864114       15.5619349060        1.1937081542
  H        19.7122604802       13.5208018669        0.9593150443
  H        13.7801935569       15.1893150616       11.0106712080
  H        13.2997552410       14.8886034399       12.6252601830
  C        12.5418526024       13.4255311211       11.1160161721
  H        15.8248935079       15.4028541243       11.9591735053
  H        15.5260976897       14.8060468941       13.6597692060
  C        17.3172489357       14.0031291625       12.8018612761
  H        14.0683950806       12.6381389662       14.8881852473
  C        14.0075381823        9.7107074414       15.6507943997
  H        14.3017317195        9.8600629244        0.9454780607
  H        13.6128314806       11.2460540382        1.5550739229
  C        12.1501843393        9.8542983415        0.7850117135
  C        19.0668795206       16.1766889520       -0.0324691895
  H        12.9519172797       12.9111453831       10.2587463247
  H        12.2726104813       12.7755601760       11.8544890275
  C        11.2669931709       14.0994253232       10.6444948307
  H        17.8870885945       14.3195427670       11.8670264388
  H        17.2179902247       12.9164006847       12.8666290744
  C        18.0842872482       14.4614909191       14.0489747297
  C        13.9444192473        8.3144195903       15.7388613367
  C        13.6821273690       10.4054477923       16.8620712761
  H        12.0642586889        8.7668754515        0.7724199427
  H        11.3700165291       10.4023796769        1.3241234709
  C        12.3047272111       10.3977970383       -0.6169690596
  H        19.1246376375       17.2557861592        0.0445439582
  C        19.2921503688       15.6979859236       -1.3227230389
  H        11.5820278614       14.9490955815       10.0459305509
  H        10.7477289138       14.4038441733       11.5016714947
  C        10.4267692384       13.1329996737       10.0086444931
  H        18.0296539808       15.5128218644       14.2409758415
  H        17.6449522224       14.0974441420       14.9025854966
  C        19.5227829587       13.9950963980       13.8919334912
  N        14.2053916503        7.4420733540       14.6613106539
  C        13.6651777621        7.5875024971       16.8716331185
  C        13.4653718964        9.6748217881       17.9994557698
  H        13.7549311081       11.4576637329       16.9751521632
  H        11.4108840686       10.1144281641       -1.1301283472
  H        13.1031957350        9.9144668587       -1.1402200863
  H        12.3883892658       11.4605209525       -0.7190805243
  S        19.4825556867       14.0492885350       -1.8182803601
  C        19.4825268007       16.6433656048       -2.4464153464
  H        10.4819108846       13.2639706832        8.9950274584
  H        10.5036785145       12.0911495909       10.1756086485
  C         8.9475433334       13.3717679348       10.2196511359
  H        19.9458974549       14.3563008187       12.9574657745
  H        19.5039499467       12.9024393176       13.9086920766
  C        20.3719337036       14.2079591948       15.0802083548
  S        13.9407763730        5.9237629451       15.1908383372
  N        13.5781516097        6.1908844101       16.7205532882
  C        13.5014417089        8.2094888487       18.0778325010
  H        13.3315639232       10.1786246663       18.9495962328
  C        19.9228257250       14.7215416629       -3.4207148525
  N        19.7703751450       16.0444193525       -3.5577650383
  O        19.4316536380       17.8860839150       -2.2751451286
  H         8.7453405852       13.2955598829       11.2891798616
  H         8.6135545430       14.3949373871        9.8480659612
  C         8.1558372059       12.3360274951        9.5010375142
  H        19.8355969252       14.6805597145       15.9367319237
  H        20.5759754031       13.2543108569       15.4804468583
  C        21.6292886988       14.9694847193       14.6810195939
  C        13.3234245051        7.4917496237       19.2649448935
  S        20.2855679347       13.6567465794       -4.7599352539
  C        20.1164882038       16.7432083678       -4.7648903365
  H         8.4548307420       12.2728901172        8.5452504487
  H         8.4963439519       11.3998463460        9.9196093563
  C         6.6638804002       12.6857483020        9.6658234708
  H        22.0165740070       14.4447532661       13.7799085499
  H        22.3616935106       15.0252736135       15.4829245990
  C        21.4512240750       16.4336536141       14.2255188359
  H        13.6790309163        6.4848173704       19.0851125848
  C        12.6611249807        7.7354600769       20.4692621085
  H        20.9648192777       16.1902572955       -5.2596756946
  H        20.4235389223       17.7828144289       -4.5593007605
  C        18.9088548917       16.7321359345       -5.7582412197
  H         6.4557583577       13.0860874251       10.6249798159
  H         6.1562819302       11.7695263398        9.5688423564
  C         6.2810962429       13.7346707047        8.5796388400
  H        22.1035067291       16.7934356409       13.4342188761
  H        20.4588305017       16.4815520775       13.7627792694
  C        21.5641254932       17.4106817277       15.4013443915
  S        11.9403667036        9.2008776072       21.1500495955
  C        12.6242916083        6.5551609274       21.3764917905
  H        17.9775443643       16.8514391290       -5.2509535615
  H        18.9497848177       15.8052612264       -6.3288488438
  H        19.0915282640       17.5518203979       -6.4649479554
  H         5.1815690210       14.0548958630        8.7664826814
  H         6.7716129162       14.6583811347        8.7817429347
  H         6.4593768150       13.5161407863        7.4891625349
  H        20.7784463686       18.2201331611       15.4397965337
  H        21.7595937878       17.0190806439       16.4117674220
  H        22.4454427154       18.0132775745       15.1460339432
  C        11.7522838390        8.2448377792       22.6299046331
  N        12.1318993479        6.9273535098       22.5544979134
  O        12.9113923714        5.4138222174       20.9805732718
  S        11.0102011695        8.8744490873       24.1343140265
  C        12.1453525173        5.9737124616       23.6631267504
  H        11.7496510692        4.9696699887       23.3225367860
  H        11.3857087730        6.2128422489       24.4316355114
  C        13.5800591188        5.7322668382       24.2983191070
  H        13.3827197011        4.8599809352       24.9501340490
  H        13.9816618904        6.6190150010       24.8100746872
  H        14.2956286678        5.5564683913       23.4928639380
