352
 i =    41300, time =    41300.000, E =        24.7738417564
  H        11.9800037276        7.6541199603       31.9586684833
  C        11.6054865363        6.6240517539       32.0374882323
  H        12.4579456858        5.9090777212       31.9613015514
  C        10.5599972376        6.5225922759       30.9403575781
  C        11.0740246338        6.2507559756       33.4180654004
  C        11.2671577312        6.4209739941       29.5643094903
  H         9.9653452103        5.5995587984       31.2363632207
  H         9.9090875307        7.3613314985       31.1089439417
  H        10.8579580070        5.1484624955       33.3521546373
  H        11.8958072862        6.2828943935       34.1503249062
  H        10.1790000274        6.7850585593       33.7773174194
  C        10.3036924148        5.8861762565       28.5034314462
  H        12.2362965951        5.9391801282       29.5531493803
  H        11.4827877850        7.4133638750       29.3151441435
  C        10.8543114247        5.8202153680       27.0799225203
  H         9.8473278747        4.8945755150       28.8987635194
  H         9.4886122300        6.5568023781       28.5630324144
  C         9.7622763921        5.2292128310       26.1583128197
  H        11.7601939434        5.1517244433       27.0552025083
  H        11.0407878962        6.8046207159       26.6429689755
  C         8.5101970331        6.1168573174       25.9072084404
  H        10.2120852838        5.0495330591       25.2208327088
  H         9.4256886145        4.2458487778       26.5276027221
  C         7.3977385807        5.4325439756       25.0624230321
  H         8.0748020910        6.3575150198       26.9419317367
  H         8.7324182966        7.0334946254       25.3676007980
  C         6.9769399527        4.1346963845       25.8202828613
  C         7.8638926123        4.7106571761       23.8690171861
  C         6.1651602334        6.4514533446       24.8320043195
  C         7.3531620200        3.0132039385       25.0754656118
  C         6.3015448757        3.7433661220       27.0038731301
  C         7.8913577662        3.3955655507       23.8494068835
  C         8.3027067260        5.3883582953       22.7506108195
  H         6.4372825295        7.2039691856       24.0619615882
  H         6.0684952205        6.9595343955       25.7879574550
  C         4.9071403409        5.7595075009       24.3453305813
  S         6.9752494430        1.5984743460       25.8534886182
  C         6.3606882847        2.4071295103       27.1626673005
  H         5.9290925460        4.5415389505       27.6691135809
  C         8.2810342362        2.8238526713       22.6942004117
  H         8.4919857488        6.4186341547       22.7235948529
  C         8.6902415862        4.7541131866       21.5775768559
  H         5.1012114253        5.3086303470       23.3455747257
  H         4.8226464385        4.9064310153       24.9835197762
  C         3.6115499728        6.5701585256       24.2259266526
  C         5.9536534862        1.6693871057       28.3594654553
  C         8.7121216900        3.4724713913       21.5257731842
  H         8.2459390717        1.7642023236       22.7014357456
  C         9.1817026582        5.1188651653       20.3213534237
  H         2.9910628840        6.1405405060       23.5002162319
  H         3.9720470145        7.5217656796       23.8032214959
  C         2.9577603024        6.8099546907       25.6283198187
  C         5.9374881898        0.2647602045       28.5520935642
  C         5.7252013929        2.4902155863       29.5780342963
  C         9.1357648903        2.7376158391       20.2890978880
  C         9.3926172883        3.9872991484       19.4976951217
  S         9.4531219329        6.5127935264       19.4714449382
  H         2.2513947412        7.6455496521       25.4249829972
  H         3.7118956227        7.2086197654       26.1952984849
  C         2.4938284278        5.5547565849       26.3098849546
  N         6.2720051398       -0.7148559684       27.6074400941
  C         5.7458016645       -0.2615818462       29.8226526069
  C         5.4089548547        1.9529729688       30.8068978483
  H         5.6806207147        3.5689432302       29.4894615920
  C         7.9710862054        1.9807724087       19.5514743137
  C        10.5195904015        1.9740288818       20.4172026705
  C         9.7776936561        4.3398952818       18.1779791019
  C         9.7263935116        5.7104592431       18.0136663579
  H         1.8506513151        4.9810650475       25.6205750696
  H         3.3496983823        4.9912977758       26.4907152926
  C         1.8202064144        5.6952592219       27.6487896653
  S         6.2987323546       -2.1846731277       28.3972672951
  N         5.8770292358       -1.6740930056       29.8578525884
  C         5.3692354997        0.4765819169       30.9974824800
  H         5.2043289892        2.5748432792       31.6283244462
  H         7.7468660693        1.1717117462       20.1931770959
  H         8.3284398988        1.5198351248       18.6336911693
  C         6.7107959112        2.7736003059       19.2037800717
  H        10.6841487754        1.3800902816       19.5400155114
  H        10.4262361458        1.1370687620       21.1344041472
  C        11.7605233104        2.7690482264       20.7041825908
  H         9.9898350616        3.5484657555       17.4484561023
  C        10.1534249268        6.4347091923       16.7664629330
  H         1.2231311848        4.7976631962       27.7674086287
  H         1.0802774510        6.4703226071       27.5328023657
  C         2.8292584245        6.2006130278       28.7320458993
  C         5.1592741830       -0.1759290150       32.2035276059
  H         6.8502448406        3.7033620014       18.6555605996
  H         6.3237983413        3.0628128507       20.2081760234
  C         5.7447423042        1.9230872218       18.4819574000
  H        11.5159729007        3.3830058366       21.5989378960
  H        11.9912104117        3.4727656553       19.8575134895
  C        13.0635156920        1.9312002566       20.9336280610
  C        10.2874381510        7.8599382260       16.6445259868
  C        10.3931034005        5.6961572707       15.5547855425
  H         3.6912489604        5.5098319024       28.6923244438
  H         3.1766777682        7.1902373584       28.6516200918
  C         2.1424392998        5.9737374995       30.0478110110
  H         5.3041589478       -1.2694209663       32.1197950736
  C         4.8950680686        0.3226752048       33.4771074867
  H         5.6105924444        0.9544179298       18.8940910192
  H         5.9995301630        1.7872443032       17.4835310955
  C         4.4020412115        2.7220873154       18.3192541125
  H        12.9386685456        1.2228861638       21.7157905714
  H        13.3369959368        1.2179407095       20.1258426143
  C        14.2278153879        2.8563795490       21.2259303487
  N         9.8615399025        8.7533614562       17.6752825947
  C        10.6554942653        8.4487926987       15.4713735579
  C        10.6669540155        6.3026212400       14.3226123899
  H        10.2296666194        4.5983417771       15.6276474471
  H         1.5615558695        5.0414663895       30.1717257276
  H         2.9601225147        6.1118655072       30.7112753964
  H         1.3765024794        6.7386197362       30.1196081203
  S         4.6968842931        1.9425796255       33.9512037962
  C         4.7500528389       -0.6986357713       34.5095170215
  H         4.3458322617        3.4593206317       19.1449493328
  H         4.3448813941        3.1486545586       17.3193773194
  C         3.1241097468        1.9360200324       18.5682397263
  H        14.1692440735        3.7605286808       20.7563756515
  H        15.0597476241        2.3545481053       20.7383400065
  C        14.5241612244        3.1829967273       22.7081558011
  S         9.8688537831       10.2409017673       16.9887756111
  N        10.4983901816        9.8516569887       15.5566314824
  C        10.9854587470        7.7916102009       14.2980502957
  H        10.9147595785        5.7398866576       13.4705712033
  C         4.3961166947        1.2237780786       35.5459214057
  N         4.4360903617       -0.1316286927       35.6348442553
  O         4.7300003279       -1.9059324725       34.3073771411
  H         2.2559460191        2.4289959611       19.0250618457
  H         3.2710270690        1.2064242183       19.3719058159
  C         2.5646878098        1.1134648713       17.3671707373
  H        14.9411348842        4.1832359443       22.7177505378
  H        13.5882916697        3.1766522362       23.2460683875
  C        15.4898692218        2.1267856556       23.2668574964
  C        11.3767315233        8.4628828178       13.1881149965
  S         3.8222375866        2.0580801650       36.9965612275
  C         4.4664028609       -0.9332421419       36.8230016434
  H         1.7650149455        1.6141687330       16.8263489140
  H         3.3309734593        1.1018601954       16.6508697727
  C         2.2129771942       -0.3144528800       17.7714569049
  H        15.5611538032        1.2227367574       22.5557151052
  H        15.0894432864        1.7473258707       24.2085678804
  C        16.9167492924        2.4852386210       23.3545907820
  H        11.0243787426        9.4803404457       13.1537352494
  C        11.9298259937        8.0368334179       11.9780750651
  H         3.7522602767       -0.6763610777       37.6246295526
  H         4.0770317485       -1.9399753297       36.6568342290
  C         5.8978664141       -1.0507612500       37.4109677733
  H         3.0777683860       -0.9634990272       17.8352662291
  H         1.4924293579       -0.6573562261       17.0598845171
  C         1.4839215006       -0.3880048000       19.0678496518
  H        17.0993262241        3.4011799432       23.8820432114
  H        17.4257620759        1.6752532302       23.8857360832
  C        17.5682276839        2.7149900682       21.9821645645
  S        12.5412047899        6.4771501424       11.6494300862
  C        11.8564632602        9.0022681409       10.8730288993
  H         5.9023642119       -0.7898541269       38.4843306780
  H         6.3609908430       -2.0123167026       37.1549711513
  H         6.4963998648       -0.3306673120       37.0176651958
  H         2.2558786109       -0.6201070745       19.8699687581
  H         0.8713956361       -1.3465120175       19.0198152830
  H         0.9054739125        0.5100360436       19.2153675154
  H        18.6157724230        2.3088863015       22.0154890796
  H        17.6127673516        3.8548052802       21.8049337302
  H        17.0931172834        2.2559406871       21.1192197145
  C        12.8213441239        7.1807259501        9.9977849924
  N        12.4458573329        8.4717124408        9.8283022354
  O        11.6081365707       10.1990491855       10.9970190272
  S        13.3011614332        6.2507211783        8.5570638736
  C        12.6593657342        9.2516269637        8.5887464650
  H        13.0315595717       10.3230506346        8.7852370726
  H        13.4573101863        8.8262971933        8.0024157298
  C        11.2945592694        9.2976202084        7.7271922501
  H        10.8879564114        8.3320978299        7.4420463193
  H        10.6084049449        9.6882835531        8.4175994449
  H        11.2641214715        9.9695902550        6.9048071005
  H        21.3473237075       11.4476379210        3.6388225729
  C        22.0711789106       10.6230405092        3.6089904378
  H        21.3593098150        9.7970639140        3.6093815464
  C        22.9648966810       10.7077447651        4.8581643599
  C        22.7849649102       10.5652982808        2.2203244931
  C        22.1179957502       10.8511759554        6.0990847194
  H        23.5921776150        9.7838283693        4.8889899884
  H        23.7104768570       11.4450763005        4.6771864560
  H        23.4227967519       11.5483098093        2.1634592519
  H        21.9629589991       10.5683264763        1.4887482859
  H        23.4772473145        9.7581746552        2.1675437504
  C        21.4167534475        9.5108054538        6.6162617068
  H        22.7380741776       11.2181744418        6.9374488169
  H        21.3527698725       11.6549967689        5.8615747289
  C        20.6594650612        9.5883223244        7.9949139420
  H        22.1919820192        8.8391369723        6.9472769850
  H        20.8800119341        8.9232407743        5.8319636584
  C        19.3789488863       10.4799450907        7.8824806617
  H        21.3836079062       10.0312077460        8.6121112727
  H        20.4938079086        8.5936778049        8.4213623842
  C        18.2218539260        9.8488833505        7.1796276285
  H        19.0947771274       10.7803798266        8.8560887828
  H        19.5837341677       11.3701066431        7.2806226951
  C        16.8601144674       10.6833641115        6.9323891325
  H        18.0400934015        8.8179237525        7.4856103822
  H        18.5780145132        9.9175859564        6.2067967662
  C        17.1606555342       12.0673537020        6.2428936142
  C        16.2897587415       11.4295012476        8.1538013893
  C        15.8181942496        9.8605871865        6.2219043238
  C        16.8264426331       13.1482321521        7.0262753690
  C        17.6651824318       12.4280572940        4.9947613223
  C        16.2704171116       12.7636253417        8.2062342263
  C        15.8624695171       10.7122329394        9.2816623871
  H        16.2677228603        9.3279670003        5.3641268784
  H        15.5687852856        8.9632707141        6.8445155539
  C        14.5679913032       10.6841454233        5.8201883288
  S        17.2540169450       14.6944443645        6.2770739535
  C        17.7753037216       13.7903226792        4.8301301899
  H        18.0161553420       11.6084334301        4.3323224971
  C        15.7668471425       13.3533147210        9.2658148726
  H        15.8932095866        9.6519895691        9.3045223955
  C        15.4429479422       11.3882894694       10.3774988077
  H        14.7191160994       11.6545503946        5.3191602205
  H        14.0749499581       10.8742459921        6.7426500976
  C        13.7649407260        9.8701029813        4.8580913546
  C        18.2618026800       14.4701483425        3.5806421863
  C        15.4161346119       12.7089558177       10.4400277476
  H        15.7385220138       14.4338288141        9.3440905094
  C        15.0124962095       11.0600353025       11.6511975427
  H        12.7938713285       10.3335586856        4.7741090047
  H        13.6386969562        8.8540812590        5.2686248527
  C        14.1942036869        9.9664263627        3.4219051405
  C        18.2387267021       15.8718439886        3.3082989603
  C        18.7132637812       13.6850410971        2.4661231418
  C        14.9267234807       13.4923386781       11.5903984396
  C        14.8027607015       12.1739502136       12.4203140033
  S        14.8654942249        9.5800875652       12.5366970597
  H        14.9187589636        9.1487178479        3.3365158001
  H        14.8819518595       10.7658839921        3.1840672749
  C        13.0512677821        9.8322630853        2.4829454951
  N        17.8775344537       16.8263639338        4.2941449734
  C        18.5628791614       16.4079549144        2.0522690422
  C        19.0187247880       14.2707939976        1.2149795164
  H        18.5674618197       12.6201776144        2.5105554203
  C        13.6178693450       14.3173661334       11.3762458022
  C        16.0717017221       14.4952368692       12.1362425852
  C        14.4131571210       11.9064579234       13.7670194523
  C        14.5018029349       10.5191116764       13.9747685936
  H        12.5753482264        8.8648600983        2.7316514825
  H        12.2972404339       10.6116762623        2.5233648177
  C        13.6314876462        9.7587063853        1.0739126832
  S        18.0279621215       18.2974973174        3.6804551993
  N        18.3056159663       17.8385728806        2.1423458090
  C        18.9914812095       15.7302243296        0.9858281099
  H        19.2145419335       13.6020700667        0.4297333365
  H        13.8308465103       15.1491730104       10.6215056776
  H        13.3850691578       14.7850344248       12.3650985872
  C        12.3635406680       13.6251947923       10.9411320742
  H        16.5740455053       15.0219878389       11.3071752718
  H        15.6651337668       15.2634965026       12.8146957956
  C        17.2053250361       13.8651015629       12.8294745633
  H        14.1621461920       12.7100724221       14.4259342586
  C        14.0889748032        9.8572608302       15.3036656143
  H        14.4698910262        9.1381931577        1.0580768586
  H        13.9028933673       10.7225413939        0.8357315648
  C        12.5521626294        9.2128788394        0.1367413388
  C        19.2194731402       16.4760886311       -0.1907244796
  H        12.5791864267       13.1734775586        9.9963113911
  H        12.1055680204       12.7963083786       11.6176244398
  C        11.2278225788       14.6627962457       10.7145095775
  H        17.5534841225       13.0517694389       12.1656245918
  H        16.8171119367       13.5108302267       13.7964155597
  C        18.2943513728       14.8096664050       13.2098426467
  C        14.0590732448        8.4563681331       15.5728579815
  C        13.8010388436       10.7090077703       16.4513340273
  H        12.4288664724        8.1326180232        0.3584748032
  H        11.5950710869        9.7052789081        0.1977184190
  C        13.0858365365        9.3583060448       -1.3076549383
  H        19.0320752517       17.4652020317       -0.1674388542
  C        19.4362833047       16.1146049156       -1.5252658565
  H        11.3496131067       15.2658517425        9.8097475886
  H        11.2285532148       15.2628416447       11.6233366786
  C         9.9640650488       13.9356644388       10.6814499734
  H        18.6375236710       15.3606158868       12.3692287504
  H        17.8969115550       15.4819252354       13.8984847912
  C        19.4571520399       14.1585928741       13.7442654593
  N        14.5287016990        7.5041306648       14.6885728806
  C        13.7112229042        7.8679238825       16.7604750217
  C        13.3925648606       10.1748998732       17.6943286731
  H        13.7928505020       11.7960306951       16.3204117067
  H        12.8322569437       10.3013515807       -1.7193486622
  H        12.7334456811        8.5622138982       -1.9384601676
  H        14.1583710111        9.1207436833       -1.3564613698
  S        19.6605056732       14.5561935874       -2.2400226916
  C        19.5692907168       17.2576198549       -2.4749902496
  H         9.9290727530       13.0346153638       11.2902756079
  H         9.2818445654       14.6349615218       11.1147834694
  C         9.6570073327       13.5932335513        9.2295418180
  H        19.6498105136       13.2646820608       13.1472556270
  H        19.3136269840       13.8419802650       14.7832957511
  C        20.6869578307       15.0692696892       13.6499779453
  S        14.2170246860        5.9920915956       15.2094049358
  N        13.6563798244        6.4570239067       16.6358065195
  C        13.3747564773        8.6837374982       17.8818759158
  H        13.0087963564       10.8841363651       18.4501856747
  C        19.9413777649       15.4179505751       -3.7683941609
  N        19.8803459890       16.7327934369       -3.6893616305
  O        19.6485696128       18.4449604909       -2.2054048149
  H         9.7070609693       14.5054215985        8.6296025015
  H        10.4896623551       13.0041165393        8.8432204427
  C         8.3952022491       12.9298129644        9.0235039292
  H        21.5242331227       14.4435819769       13.8458748210
  H        20.8115010221       15.5367225528       12.6821468558
  C        20.7264372226       16.0723764522       14.7583334565
  C        12.9461692115        8.0203599095       19.0613973031
  S        20.2869575139       14.6876860082       -5.3302690895
  C        20.0255345491       17.5950039406       -4.8392003917
  H         8.3553835130       12.4447833660        8.0780802338
  H         8.4272022856       12.0621715266        9.7176578359
  C         7.1562270097       13.7825988376        9.2138598907
  H        21.1149814456       15.5005660897       15.6027343224
  H        19.6804138858       16.4355081951       14.9593601225
  C        21.5036313316       17.3457196802       14.4802760600
  H        13.1326595682        6.9164621004       19.0474507545
  C        12.4366368779        8.4626704702       20.2569869326
  H        20.7715192824       17.2213335281       -5.4465559312
  H        20.3282637920       18.6050164198       -4.4935933551
  C        18.6540905738       17.6623723340       -5.4933083504
  H         6.6882164754       13.9031536790        8.2393650457
  H         7.4237499593       14.7650104576        9.4670140657
  C         6.1710450710       13.3488189432       10.2674649027
  H        22.3504619758       17.2244910140       13.8743863725
  H        20.8336825434       17.8785020890       13.8607426055
  C        21.9249558844       18.1229627620       15.7708686829
  S        11.9240901979        9.9955743688       20.7708678179
  C        12.2083146250        7.4307622104       21.2527724007
  H        18.4515789258       17.0074257248       -6.3343010427
  H        18.5048067413       18.6586276784       -5.9660355796
  H        17.9133962501       17.5515902478       -4.7001575708
  H         6.0636413457       14.0226789660       11.1390598435
  H         5.2032821758       13.2450218263        9.7406989517
  H         6.3474542830       12.3267805626       10.8151390939
  H        22.1104160724       19.1310774083       15.4197426580
  H        21.1176248200       18.0972753538       16.4770577563
  H        22.9017272701       17.7550051121       16.2068602467
  C        11.4145501346        9.2780384960       22.3032965559
  N        11.6655576852        7.9157669657       22.3768141308
  O        12.5849659119        6.2666207775       21.1353532334
  S        10.7745266441       10.1992683810       23.7276088875
  C        11.5328809084        7.1258009220       23.5140124170
  H        11.2488252350        6.1580063011       23.2016482900
  H        10.6218432552        7.5126251575       24.0765503122
  C        12.7092328047        7.2648742053       24.4264390218
  H        13.5819319938        7.6254025309       23.9140738709
  H        12.8891758695        6.3199608619       24.9622978990
  H        12.6547558068        7.9489871145       25.2819185031
