352
 i =    98000, time =    98000.000, E =        24.9616493396
  H        10.2168893587        6.4684635818       31.6500040817
  C        11.3309961712        6.8146329075       31.5530152638
  H        11.4076882330        7.8864609843       31.5575728880
  C        12.1335313370        6.2683219146       30.2687663353
  C        11.8598335773        6.2121536748       32.8624934575
  C        11.5442895143        4.9827535261       29.6207286914
  H        12.1920032757        7.1271462173       29.5809229718
  H        13.2359116522        6.2008892383       30.3716133604
  H        11.2805507692        5.2836227419       32.9411508300
  H        12.9321461821        6.0596422967       32.8176351567
  H        11.6502942329        6.6823143476       33.8555009513
  C        10.2841134959        5.2440934661       28.8926748709
  H        11.3777752722        4.2419643905       30.3519261442
  H        12.3044801104        4.6823768779       28.9296304572
  C        10.4541485464        6.0002499294       27.5829573956
  H         9.7297152833        4.3092089904       28.7369653413
  H         9.6160722877        5.8811277471       29.4204037160
  C         9.6916899819        5.4383505015       26.4279178581
  H        11.5220345716        5.8817674276       27.2380651707
  H        10.3078260032        7.1051988286       27.7001337797
  C         8.3652365827        6.1340191843       26.1053335852
  H        10.3729617834        5.5256943488       25.5555878945
  H         9.5818575406        4.3479459991       26.5664585350
  C         7.4449143268        5.2208834025       25.3188776945
  H         7.9134865069        6.5224572395       26.9927427018
  H         8.6142556586        6.9965104945       25.5135999988
  C         7.2005674156        3.8769557755       26.0162087346
  C         8.0986791506        4.5203607181       24.1374517808
  C         6.0660165327        5.7109051634       24.8731937093
  C         7.4568736018        2.7893629328       25.2320070292
  C         6.7426466129        3.4914500048       27.2903886200
  C         8.0722003318        3.1728870343       24.0508974898
  C         8.5798044405        5.2017779682       23.0580115209
  H         5.4973022105        4.8642233938       24.5163707421
  H         6.3017454429        6.4636465073       23.9972159751
  C         5.2287259522        6.4399160185       25.8854990908
  S         7.3538509224        1.3045787678       26.1266243808
  C         6.7486032337        2.1303490314       27.5272656375
  H         6.3221006615        4.1827699465       27.9861898596
  C         8.5218409541        2.6057222095       22.8878148775
  H         8.5671059003        6.2476228411       23.0824050723
  C         8.9801098589        4.6136055862       21.8965137252
  H         5.3619912409        6.0232889194       26.8979510900
  H         5.6544491203        7.4137675334       25.9055541502
  C         3.6917981024        6.3953928692       25.5765527843
  C         6.3091777774        1.4611626864       28.8021061958
  C         8.9313497215        3.3056348908       21.7385867183
  H         8.4876086294        1.5654349802       22.7880780210
  C         9.3829696696        5.0280318398       20.6658633505
  H         3.3312491728        5.4128342989       25.1956514507
  H         3.3768443610        7.1136739204       24.8562812052
  C         2.9037843795        6.5856133219       26.7941161489
  C         6.4366115341        0.0754791747       29.0619301456
  C         5.6819223124        2.2450146406       29.8670068771
  C         9.2838572311        2.6028267359       20.4792296564
  C         9.6040083441        3.9611018514       19.8316382820
  S         9.6926865643        6.5219035623       19.8715587447
  H         1.9716612765        7.0609948152       26.4458843570
  H         3.4705612915        7.3365942007       27.4464610213
  C         2.5931067001        5.4145397393       27.6095877530
  N         6.7400315762       -0.8314066264       28.0711796453
  C         6.1580387526       -0.5388201140       30.2653248457
  C         5.5865551174        1.7596850100       31.1662414698
  H         5.4333905061        3.2684920505       29.7134096262
  C         8.0982239678        1.8235279688       19.8445862077
  C        10.5975493825        1.7361073773       20.5539615679
  C         9.9481347155        4.3180776622       18.5849714349
  C         9.9829532118        5.6824725731       18.3902891806
  H         2.1003733975        4.6881530128       26.9706648233
  H         3.5143548542        4.9764902528       27.8642634417
  C         1.7050677706        5.7272365348       28.8802450952
  S         6.6567095628       -2.3664467466       28.6557934045
  N         6.2501661219       -1.9701270815       30.2277192842
  C         5.8281123735        0.2948454992       31.4100010560
  H         5.3676963227        2.4080769343       31.9445053425
  H         7.7755753329        0.9730531196       20.4768548235
  H         8.3082703220        1.3764166766       18.8658092094
  C         6.8869994971        2.7394985161       19.6962843991
  H        10.9310216146        1.5256418735       19.5511890439
  H        10.3869746917        0.7913606072       21.0806907850
  C        11.7311895882        2.4575181865       21.2346490672
  H        10.1079489280        3.5550523601       17.7567075120
  C        10.1921399330        6.5236766012       17.1367744558
  H         0.8514385563        5.0160588169       29.0535586320
  H         1.2358978334        6.6626791896       28.6059271972
  C         2.4829905654        6.1602980718       30.0792300367
  C         5.4296563599       -0.3441723179       32.6522207417
  H         7.1758466147        3.4768722160       18.8973250797
  H         6.6790974100        3.2069815956       20.6410818158
  C         5.6681946528        1.8824392576       19.3306704734
  H        11.4298503014        2.6159326911       22.2282962897
  H        11.9395622170        3.3718376005       20.6730981057
  C        12.9705836917        1.6520345636       21.3791841622
  C        10.1705298227        7.9254590851       17.0394166723
  C        10.4021268933        5.7878066871       15.8715851380
  H         3.3346806656        6.7427365043       29.6783173799
  H         1.9166203120        6.9036251958       30.6299195551
  C         3.0068596656        5.0124465704       30.8686077922
  H         5.7074559936       -1.3991472518       32.6820116042
  C         5.0328919464        0.0694187563       33.8638872028
  H         5.4028146840        1.4003703812       20.1936490979
  H         5.9279803331        1.1968963033       18.5721220410
  C         4.5027822072        2.6944505513       18.7077218866
  H        12.5324371992        0.7621618806       21.8751574877
  H        13.3571110677        1.2804183542       20.4577627074
  C        14.1362920919        2.3680455373       22.0217465121
  N         9.9090480523        8.8837370148       18.0278042132
  C        10.4302638803        8.5883376766       15.8128442886
  C        10.7271846047        6.3955938256       14.6799405573
  H        10.3659713808        4.6646936680       15.9107900088
  H         2.3083414238        4.6265923679       31.5697611763
  H         3.2924800181        4.2469012747       30.2246491567
  H         3.9406013198        5.3576850740       31.2631928165
  S         4.9301100733        1.7275889206       34.2550540805
  C         4.9101112413       -0.9026105273       34.9974496504
  H         4.3806212848        3.6239711267       19.3145634699
  H         4.6842692971        2.8995896638       17.7278215188
  C         3.1597100297        1.8945173070       18.7297233279
  H        13.7212440333        3.0548783975       22.8622067724
  H        14.6652985025        2.9999106700       21.3864872834
  C        15.1483307975        1.4436487065       22.6447666783
  S        10.0809462854       10.4072009864       17.4786644307
  N        10.5266338224        9.9821728391       15.9375668034
  C        10.8852327706        7.9259199536       14.6425872437
  H        10.9407363476        5.7370140925       13.8350800967
  C         4.6703960871        1.1185811695       35.9669266893
  N         4.5811106263       -0.2274876501       36.0740272376
  O         4.8492057328       -2.1074672110       34.8047361135
  H         2.2648568870        2.2696999584       18.0671987843
  H         2.6697890910        1.9924501186       19.7137960972
  C         3.3306398426        0.3907514690       18.3454591350
  H        14.9234787150        0.9113415603       23.6291299445
  H        15.3116762065        0.6693432604       21.9616280968
  C        16.4505897700        2.2943950301       22.7827819323
  C        11.2458732964        8.7138541177       13.5220525887
  S         4.2813553260        2.0751438778       37.3811287471
  C         4.4142215080       -0.9927900401       37.3298275798
  H         3.8807818379        0.4101938923       17.4124539440
  H         3.9720851867       -0.2310313556       18.9952276336
  C         1.8925264358       -0.3788784466       18.1994586631
  H        16.2952622071        3.3914298088       22.8389747816
  H        16.8754802117        2.3936461925       21.8285559547
  C        17.6656505391        1.8429580805       23.6454681812
  H        10.7557036011        9.7161439660       13.4754483945
  C        11.7249269143        8.2901940219       12.2646462632
  H         3.8675981918       -0.3960783413       37.9580647306
  H         3.7480638909       -1.8557503626       37.1014207778
  C         5.7616021081       -1.3628503754       37.8763221780
  H         1.1366393005        0.2155830173       17.6954776575
  H         1.4985080247       -0.6906047765       19.1945540134
  C         2.0102741009       -1.6775554117       17.3999891049
  H        17.6459612090        2.7222019417       24.2263465549
  H        17.1799766056        0.9619451063       24.0759622632
  C        19.0479373076        1.5482290081       22.9773330671
  S        12.3541644870        6.7773357729       11.7978089420
  C        11.8545696230        9.4012495653       11.2242667395
  H         6.2510071916       -2.2657609021       37.4909330484
  H         6.4498036052       -0.5339734745       37.9789978547
  H         5.7116221721       -1.7134463232       38.8511449832
  H         2.8810790900       -2.2389009191       17.5875570378
  H         1.7946586994       -1.5247618704       16.3279308362
  H         1.1777217284       -2.3785502878       17.6131438261
  H        19.7987770112        1.2038457670       23.6781535820
  H        19.4379211543        2.3829364118       22.4370671696
  H        18.9672877933        0.7257507771       22.2916102802
  C        12.7217340620        7.4764708855       10.2330141399
  N        12.4374394897        8.8167920429       10.1330139712
  O        11.5542805753       10.5689018309       11.3230913124
  S        13.4211603391        6.5721272727        8.8252187073
  C        12.5939319103        9.5622432371        8.8808764881
  H        13.0311483184       10.4768204410        9.2066060156
  H        13.3405752790        9.1323889605        8.2115693817
  C        11.2807879641        9.5911928720        8.0857877850
  H        11.0180293731        8.5588091163        7.9593525899
  H        10.4125764835       10.0356744711        8.6415169214
  H        11.3181408379       10.0270069810        7.0961653438
  H        21.0138258611       11.5810161747        3.6847810290
  C        21.5817402188       10.7097699837        3.5638241704
  H        20.8877781253        9.8713942565        3.6337554141
  C        22.5818828067       10.7189294201        4.7025871731
  C        22.2591925289       10.4891970793        2.2387655009
  C        21.9054439754       10.7447765941        6.0645341589
  H        23.2813729746        9.8885676057        4.7037635141
  H        23.1471484028       11.6450536522        4.5401697533
  H        21.4563359448       10.1093867761        1.4703827418
  H        23.0550307422        9.7661614489        2.2938487695
  H        22.7458664285       11.4239361579        1.9006188108
  C        21.1523025204        9.5018767190        6.3765682035
  H        22.6997087877       10.7742778046        6.8298600365
  H        21.2456694505       11.6579590958        6.1637954543
  C        20.6383194681        9.6229566489        7.8524435041
  H        21.6960005243        8.5730156008        6.3480585783
  H        20.2559580771        9.3892748620        5.7361180977
  C        19.4619790566       10.5502004567        8.0037278693
  H        21.3909116587        9.9183843072        8.5975042219
  H        20.2316746169        8.6655097140        8.1447537353
  C        18.1245163582       10.0062785476        7.4344548552
  H        19.2833985445       10.6473679875        9.0731597275
  H        19.6825288996       11.5194711639        7.5745311272
  C        16.9320201501       10.9657476179        7.1114425555
  H        17.6804486430        9.2776855443        8.0321357631
  H        18.3606935542        9.5056710438        6.4692137021
  C        17.3094899650       12.2253247535        6.3578839184
  C        16.5168783938       11.7592110806        8.3212569146
  C        15.8247599901       10.2240373594        6.2666115385
  C        17.1321883092       13.3625281543        7.1073254862
  C        17.8772204094       12.5080292633        5.1195825920
  C        16.6710802776       13.0990015428        8.4025088640
  C        16.0721003598       11.0830025623        9.4686639172
  H        16.1575002523       10.0124194077        5.2446160448
  H        15.5691970176        9.3275585398        6.7561701350
  C        14.5306998643       10.9577819879        6.0977376005
  S        17.5897654881       14.8155594166        6.3611198685
  C        18.0097757862       13.8422359861        4.9367210138
  H        18.0329908899       11.6669339668        4.4175601215
  C        16.3686809277       13.7795016642        9.5611288170
  H        16.0258300972        9.9985970029        9.3629248175
  C        15.8369511181       11.7538291512       10.6696553860
  H        14.7248073585       12.0025188376        5.7684403250
  H        14.0178002421       10.9406549989        7.0345257879
  C        13.5118020837       10.3112412404        5.1053198409
  C        18.4794146330       14.4829224084        3.5827248210
  C        15.9213405592       13.0782606470       10.7212563753
  H        16.4395042827       14.8301195174        9.5944525051
  C        15.4108842082       11.3521653311       11.8959625960
  H        12.6161792611       10.9519844642        5.0503212539
  H        13.0753179199        9.3789646525        5.4917262543
  C        14.1065079499       10.1253054600        3.7292668750
  C        18.5109541652       15.8977358441        3.2962558476
  C        18.8737047699       13.5746475859        2.4336010321
  C        15.4249800439       13.8035865304       11.9412815611
  C        15.1047911608       12.4624249950       12.6717557374
  S        15.0421918756        9.7825750035       12.6540592232
  H        14.7315093836        9.1774427440        3.6273209492
  H        14.7206460591       10.9772863600        3.5092988908
  C        13.0809858226       10.2585086420        2.6372610588
  N        17.9204531749       16.8816777709        4.1790057057
  C        18.8730192864       16.4100947113        2.0840950111
  C        19.1929802113       14.1616854098        1.1761732757
  H        18.9046712733       12.5299014004        2.5498627878
  C        14.1568540341       14.7396412035       11.6643952733
  C        16.6218769237       14.6040501429       12.5251704406
  C        14.7034302758       12.0315397222       13.9570274981
  C        14.6647430126       10.6492623435       14.0968544443
  H        12.1505900082        9.7017394747        2.8333818953
  H        12.7026456559       11.2530984761        2.7239659166
  C        13.5284887106        9.9734454811        1.2361884119
  S        17.9135368793       18.2809993197        3.4387696334
  N        18.6561088810       17.7961542089        2.1246178929
  C        19.1139212228       15.6424900894        0.9319314644
  H        19.3638263990       13.5102960955        0.3535369832
  H        14.3860588692       15.4274265046       10.8854670545
  H        13.8374584082       15.2849845772       12.5118623724
  C        12.9257986241       13.9525742028       11.3049427429
  H        17.0402053123       15.1621155736       11.7144788711
  H        16.2865670752       15.2983598427       13.2699784976
  C        17.7315838786       13.7985161211       13.2410448134
  H        14.5271239887       12.8539240486       14.6846180472
  C        14.2977811287        9.8640738504       15.2908363600
  H        13.9590233972        8.9578042832        1.1090277362
  H        14.3363073648       10.6535556913        1.1153466596
  C        12.4087201278       10.1384064963        0.2029668423
  C        19.1853450707       16.2258748107       -0.3499405581
  H        13.1011086812       13.2377129519       10.5178499382
  H        12.5889044179       13.4947180055       12.2331941613
  C        11.7378615266       14.7130726724       10.8212407640
  H        17.9552810943       12.8510991161       12.7737142135
  H        17.3650722750       13.5311357020       14.2274497263
  C        18.9988583811       14.6585371953       13.4350541154
  C        14.1856849532        8.4571385827       15.3633436292
  C        14.1311428794       10.6781481609       16.5497597732
  H        11.7162723341        9.2527517238        0.0889346811
  H        11.7196248572       10.7916490496        0.5623649004
  C        12.8366219431       10.5344210960       -1.2322500676
  H        18.9553496781       17.2595951422       -0.3266741029
  C        19.5267115726       15.8139703080       -1.5683476660
  H        12.1114596225       15.3143140870        9.9990482593
  H        11.2059066492       15.4312693481       11.4286976901
  C        10.6992012723       13.7458666388       10.2350447035
  H        19.4667926573       14.9749005308       12.5268724118
  H        18.6083544568       15.5485483847       13.9343913100
  C        20.0108299310       13.9767294214       14.3854770182
  N        14.3707552356        7.4973318694       14.3107640475
  C        13.8984495167        7.7772684778       16.5206398644
  C        13.8557488613        9.9870670276       17.7164104205
  H        14.3436802640       11.7338858060       16.6368218387
  H        13.2260268902       11.5412873914       -1.3858447314
  H        11.9755147017       10.3288302127       -1.8902694150
  H        13.6066709860        9.8005601169       -1.5693000257
  S        19.9172245481       14.1494727578       -2.0345256568
  C        19.5357157645       16.8303309124       -2.7149439685
  H        10.4182557340       14.1292870359        9.2657645440
  H        11.1763005232       12.8157079866       10.0667502704
  C         9.4853463844       13.3813896329       11.1290234466
  H        20.6872041901       13.4106207855       13.6802642127
  H        19.3717878645       13.2909154087       15.0101763396
  C        20.7503249804       14.9126621406       15.3342889302
  S        14.0415530874        6.0275006776       14.8295797394
  N        13.8064364574        6.3499306064       16.4361930820
  C        13.6511351188        8.4731690673       17.6694169032
  H        13.8193831127       10.5418081045       18.6701759827
  C        20.0722299051       14.8458400845       -3.7218873662
  N        19.8304152861       16.1459428091       -3.8839760680
  O        19.2203549223       18.0424958630       -2.5723113962
  H         9.2273376083       12.3723593608       10.7665803703
  H         9.7061161934       13.2834387423       12.2126124566
  C         8.3213413790       14.3382100691       10.9621947691
  H        19.9543892442       15.3573535224       15.9834145091
  H        21.4477863269       14.3946521746       16.0126156245
  C        21.5705457528       15.9887727367       14.5172693969
  C        13.4549458878        7.6958831703       18.8703402106
  S        20.5287300090       13.7892259566       -5.1572627789
  C        19.8599116748       16.7525582881       -5.1982736608
  H         7.7117141219       14.4058993221       11.8386027579
  H         8.8098970451       15.3518347105       10.9920032479
  C         7.5429651665       14.1045583894        9.7014226372
  H        21.3894669572       15.7415105828       13.4146765574
  H        22.6435677979       15.8512535091       14.6122329924
  C        21.2247714688       17.4273052292       14.8293503146
  H        13.7514085191        6.6664009759       18.8498252270
  C        12.9191170948        8.0128806947       20.0783557528
  H        20.7292875766       16.5099173964       -5.6966571399
  H        20.0697525891       17.8467611096       -5.0976796409
  C        18.6396165278       16.5782465318       -6.0595037141
  H         8.1766014974       13.5331686984        9.0068847238
  H         7.3004225319       14.9806491132        9.2226192889
  C         6.4289359885       13.1202380817        9.9659818975
  H        21.4118824984       18.1615925535       14.0256434077
  H        20.1475890867       17.3973620351       14.9933678565
  C        21.8847045313       17.8182322618       16.0958325406
  S        12.2409635935        9.6090957483       20.5721466348
  C        12.6668820595        6.9199729373       21.0190193144
  H        17.8700392754       16.1504792731       -5.4668141310
  H        18.7299959117       15.8563816689       -6.8664498052
  H        18.3658012960       17.4747467547       -6.6470549476
  H         6.8747821436       12.1272656303        9.9886940901
  H         5.8355018365       13.3142957685       10.8670030955
  H         5.7960094138       13.0948277584        9.1112405128
  H        21.7856976128       17.0673614625       16.8648368381
  H        22.9464105187       18.0296513423       15.8078596470
  H        21.4265138937       18.7493134851       16.4797364733
  C        11.9705068864        8.8097962928       22.1567115993
  N        12.1119059257        7.4761269381       22.0952339376
  O        12.9483943850        5.7552371551       20.8079202121
  S        11.2471576569        9.5182647335       23.5833316376
  C        11.8334268417        6.6463823653       23.2342452407
  H        11.5040518005        5.7149720245       22.8480751854
  H        11.0597668244        7.0672693626       23.8395372578
  C        13.0746148343        6.5230682951       24.1688621929
  H        12.8567487770        7.0399728500       25.1249621298
  H        13.9223302589        6.9442470129       23.6462937535
  H        13.2916995657        5.4761484439       24.4612499477
