352
 i =    93900, time =    93900.000, E =        25.2557519038
  H        10.0909546365        6.6302696316       31.8861848512
  C        11.1356797837        6.5003783586       32.3004386734
  H        11.6349999514        7.4397502679       32.5736688217
  C        11.9374269130        5.7012865711       31.2732577057
  C        10.9115332332        5.7975582152       33.5823612964
  C        11.0467309061        5.0094718233       30.2613505352
  H        12.6363799217        6.4086513259       30.8500120335
  H        12.4850179094        4.9646616691       31.8374777017
  H        11.8516280103        5.7941166074       34.1532004088
  H        10.1598961214        6.2503173957       34.2325445115
  H        10.6872269824        4.7616122524       33.4083854991
  C        10.2363845844        5.7902358031       29.3149777894
  H        10.4434745274        4.4154966373       30.8983257922
  H        11.6097298893        4.3122964427       29.6556446809
  C        10.8505545217        6.0100717258       27.9011830150
  H         9.3667429255        5.1855009203       29.0796648049
  H         9.8144796496        6.7118357708       29.6400034434
  C        10.0163635174        5.4643593613       26.8514284944
  H        11.8373313811        5.6026650677       27.8547912661
  H        10.8838934130        7.0842676474       27.6590869561
  C         8.6906963081        6.1465045375       26.4375542003
  H        10.5633712784        5.4660544468       25.9851861070
  H         9.9062542002        4.3815853997       27.1410107865
  C         7.7555335534        5.3418059569       25.6263138046
  H         8.1651461890        6.4535219415       27.3627704647
  H         8.8416595763        7.0796248565       25.8935402740
  C         7.3276388968        4.0135270696       26.2919291513
  C         8.3323282195        4.6640741991       24.4791748977
  C         6.4790249979        6.0468621593       25.1846455882
  C         7.5518903422        2.9597816502       25.4208051818
  C         6.7537199937        3.4775090748       27.4728982973
  C         8.2056282984        3.3692637507       24.2685473852
  C         8.8863965282        5.4248500231       23.4188823770
  H         6.0253923368        5.3958739951       24.3870113740
  H         6.7420556785        6.8517999571       24.6543495955
  C         5.5154162486        6.5383831359       26.3594864108
  S         7.0625346407        1.4484348948       26.0093533439
  C         6.6079716475        2.1474152378       27.4777649460
  H         6.5436579818        4.0863336963       28.3498357588
  C         8.6273515881        2.8121350649       23.0536879031
  H         8.9407604604        6.4796765093       23.4807787512
  C         9.1978659327        4.8606036235       22.2021720476
  H         5.6855490558        5.9684870969       27.2666574660
  H         5.7485376271        7.5821488675       26.7029097944
  C         4.0544746735        6.5196109317       26.0083273806
  C         6.1722775112        1.3505873841       28.6776148540
  C         9.1454885227        3.5223684113       21.9951891387
  H         8.3945509537        1.7359004264       22.8954356176
  C         9.5485452790        5.3230059349       20.9536123939
  H         3.7214411471        5.7019283935       25.4509211266
  H         3.7663923958        7.5094096288       25.4615894854
  C         3.1778680147        6.6212940568       27.2532221141
  C         6.3252935996       -0.0482841648       28.8904660557
  C         5.6153352916        2.0685861523       29.8395601343
  C         9.4928588537        2.8615092365       20.7263071252
  C         9.7506473674        4.2282328227       20.0906166570
  S         9.7876108860        6.8949234388       20.2370034559
  H         2.2264932936        7.1300632762       27.0237630136
  H         3.7072057386        7.2738997969       28.0220743818
  C         2.9103603711        5.2908051852       27.8833708884
  N         6.8158915241       -0.9454484554       27.9387065447
  C         5.9929017798       -0.6794208873       30.0662205372
  C         5.2907973703        1.4216358701       31.0072395705
  H         5.3584193264        3.1439126703       29.9353315161
  C         8.2885149020        2.1111814185       20.0989709078
  C        10.7002761644        1.9488517416       20.7782746768
  C        10.1340993954        4.6687429471       18.8165272046
  C        10.2037355484        6.0357879107       18.7790863149
  H         2.6425660683        4.6227246104       27.0110293796
  H         3.7195303189        4.8033327772       28.3960805674
  C         1.5951545040        5.3652285507       28.7921533666
  S         6.6192361622       -2.4235095456       28.5213244676
  N         6.3842432839       -2.0082616462       30.0900286843
  C         5.5348335260       -0.0193625471       31.1976779402
  H         4.8156013880        1.9878941529       31.7785809472
  H         7.7839233462        1.4055449683       20.8156445835
  H         8.6791256115        1.5652556521       19.2358481348
  C         7.1022303070        2.9945242527       19.6721472692
  H        10.9621039571        1.6172344800       19.8094583008
  H        10.5223188157        1.0282581409       21.3570799166
  C        12.0020378617        2.6026825606       21.3219950148
  H        10.2843444873        3.9051819198       18.0743206876
  C        10.4773905935        6.8080064620       17.4792438822
  H         1.1830932284        4.3545831237       29.0752177541
  H         0.7764720071        5.8329895863       28.1532394870
  C         1.6326628262        6.2148806734       30.0520566819
  C         5.2779225742       -0.6446006247       32.4176389773
  H         7.5327640892        3.6729601540       18.8803156777
  H         6.6739395020        3.6488490264       20.4752266482
  C         5.9293197033        2.1507497455       19.0306575763
  H        11.7240779745        3.1765764231       22.2335725189
  H        12.3256243086        3.3637168300       20.5540746541
  C        13.1062757016        1.6092070500       21.7115919585
  C        10.4019275149        8.2100723652       17.3243242540
  C        10.8212102462        6.0657334366       16.2395079948
  H         1.9634779747        7.1262684255       29.6017035673
  H         0.5767685229        6.2927549791       30.3443418723
  C         2.3777216464        5.4580547578       31.0958588567
  H         5.3519874605       -1.6695059994       32.2752557036
  C         5.0116550755       -0.3377983325       33.7215437224
  H         5.5551030290        1.3501863064       19.7311613181
  H         6.3049387875        1.6052627476       18.1731843416
  C         4.6795776657        2.8510650848       18.3740761431
  H        12.8867314565        1.2147109464       22.7139919287
  H        13.2101927747        0.7715649325       20.9770185673
  C        14.3622892503        2.4806752575       21.8674715478
  N        10.0476943249        9.1273231852       18.3031980978
  C        10.7366984606        8.8734755459       16.1254609601
  C        11.0238605118        6.6966207487       14.9828243708
  H        10.9139930258        4.9900548152       16.3467743060
  H         1.8777482340        4.5307783037       31.3057455078
  H         3.3766078977        5.3065674529       30.7193487878
  H         2.5610980572        6.0460321043       32.0006436189
  S         4.7575296496        1.3081552474       34.3932793637
  C         4.9724601489       -1.5047394748       34.7217028065
  H         4.2884123813        3.6320883356       19.0086282148
  H         4.9469743473        3.3600669834       17.4358326490
  C         3.4677078084        1.8767415891       18.1917990080
  H        14.0465328927        3.3769769845       22.4180596898
  H        14.7263364746        2.7349439079       20.9406398038
  C        15.3841459764        1.6684519084       22.6429831307
  S        10.1996991213       10.6578208749       17.7759000506
  N        10.6875353711       10.3153569607       16.2645979081
  C        11.0516723003        8.2011114681       14.9061379276
  H        11.2513268993        6.1256533975       14.1771702073
  C         4.5509822578        0.3789069590       35.9389438239
  N         4.6990251279       -0.9559944059       35.9585530800
  O         5.1570412072       -2.7061039263       34.4925558613
  H         2.6373249926        2.2976980483       17.5617160063
  H         3.1314629998        1.7246691429       19.2286649911
  C         3.8331929509        0.5114319949       17.5800048081
  H        14.8618206643        1.0376915710       23.3283307698
  H        16.0350745428        1.0207718492       22.0115903779
  C        16.2311520106        2.5985819614       23.5247044285
  C        11.2306648716        8.8812303800       13.7676121062
  S         4.1831289107        1.2072970886       37.4551734211
  C         4.8053105134       -1.8136141713       37.0949469214
  H         4.3298286396        0.5501693501       16.5742226234
  H         4.5104704768        0.1238716220       18.2576371275
  C         2.6784766014       -0.3511423215       17.6124316206
  H        15.6237950777        2.8782851327       24.4018013741
  H        16.3872433018        3.5364185945       23.0866126712
  C        17.4697927811        1.9634839451       24.1078128312
  H        10.9178984490        9.8727076789       13.8168927875
  C        11.6623143201        8.5692437553       12.4494496564
  H         4.2130792306       -1.5716277907       37.9732876653
  H         4.4837248333       -2.7549488525       36.8607523921
  C         6.2212470867       -1.8258423793       37.8084747707
  H         1.8971489254       -0.1230395474       16.8047868676
  H         2.2044660918       -0.1801552394       18.6062785572
  C         3.3183409753       -1.7834009207       17.6598409503
  H        17.7472304340        2.4442017722       25.0376423299
  H        17.0935659759        0.9248492388       24.3375801462
  C        18.6027523212        1.8694149412       23.0015007816
  S        12.3132077482        7.0995371105       11.9931256812
  C        11.6277914994        9.6109546253       11.3524135594
  H         7.0343914996       -1.9663870358       37.2015645574
  H         6.3785221810       -0.9502134880       38.2940977871
  H         6.3800189623       -2.5144978329       38.6047027395
  H         3.6754117567       -2.0500748479       18.6879326694
  H         4.1094717695       -2.0446631472       16.9020961094
  H         2.5035160961       -2.5391486873       17.4514302681
  H        19.4714877309        1.6563462621       23.5857272693
  H        18.6911496123        2.7968395288       22.4405978120
  H        18.4053663489        1.0732355085       22.2734463872
  C        12.5432521384        7.8415390542       10.3728469918
  N        12.2089594855        9.1770776856       10.2615551440
  O        11.3930633898       10.7934482199       11.6388194851
  S        13.3034304311        7.1659526517        9.0557601700
  C        12.4232821149       10.0929568256        9.1383542677
  H        12.4104067269       11.1482186217        9.4363662751
  H        13.3936408076        9.8905518568        8.7313257742
  C        11.1797600157        9.9609183039        8.1633034605
  H        11.3613678172       10.6665097772        7.3825955073
  H        11.1835851830        9.0498918812        7.5757016660
  H        10.2614840487       10.2646645361        8.7314627946
  H        21.3381498880       10.6555094674        3.3243636150
  C        22.2107297616       10.0052449358        3.1960491931
  H        21.8384206440        9.0706510925        2.9860567056
  C        23.0170727502        9.9783655600        4.4633238212
  C        23.1064551127       10.5673694902        2.0856206261
  C        22.0932614997       10.0296759747        5.7064812709
  H        23.7496434493        9.1277310153        4.4694093723
  H        23.6270563290       10.8946778130        4.4932195985
  H        23.7927599619        9.7355500694        1.7428193022
  H        23.7525001404       11.3730209114        2.4286908748
  H        22.4759430214       10.9395011695        1.1961024579
  C        21.4704446350        8.7218658853        6.1375503624
  H        22.5197930006       10.5061407251        6.5853654968
  H        21.2602355145       10.6724631580        5.4841060591
  C        20.4824372981        8.8355255836        7.3263446135
  H        22.1939513977        7.9395239659        6.3379835196
  H        20.9270893127        8.3760973724        5.2823903483
  C        19.1260743124        9.3184501593        6.7166033543
  H        20.8037804452        9.5425866448        8.0615038772
  H        20.4762673776        7.9339924735        7.9411141801
  C        18.1362278933        9.8972798556        7.7126275777
  H        19.2985973110       10.0462388718        6.0213852065
  H        18.7115195966        8.5114431227        6.2275633218
  C        16.9281537156       10.8490515676        7.2124972255
  H        18.6824862685       10.5341597604        8.4432402662
  H        17.8283227544        9.0784420389        8.3572929341
  C        17.3139613469       12.2355466823        6.5616620539
  C        16.5197666646       11.5864833665        8.4884067573
  C        15.6899527298       10.0468174838        6.6563081891
  C        17.1417005182       13.2962890681        7.4288021260
  C        17.8257547429       12.5990376468        5.2965562071
  C        16.6653864514       12.9530697471        8.6185899553
  C        16.1144587234       10.8418693758        9.6022863335
  H        16.0447459069        9.4468080991        5.9097076779
  H        15.1443276879        9.4396569583        7.3924107938
  C        14.5710094313       10.9941228495        6.0624589137
  S        17.5252564495       14.8061960674        6.6859880009
  C        17.9745782931       13.9469357891        5.2367796726
  H        18.1248331168       11.8721110356        4.5613470118
  C        16.4490803582       13.5280572837        9.8031562110
  H        16.0159134256        9.7890431413        9.6437847549
  C        15.8929595469       11.4603946790       10.7808672147
  H        14.9858196971       11.8140721496        5.4636758461
  H        14.1882087624       11.5052338191        6.9411044233
  C        13.4495178874       10.3893581081        5.2395357360
  C        18.3005087614       14.6170757618        3.9258809949
  C        16.0057285127       12.8087040365       10.9286742426
  H        16.5624724481       14.5866437141        9.9596112340
  C        15.3460771045       11.1212914292       12.0149591281
  H        12.5186531970       11.0275788623        5.1459035804
  H        13.1361779923        9.4355579673        5.6680038343
  C        13.9457547965       10.2083211731        3.8436653018
  C        18.2560566303       15.9958540865        3.6168178288
  C        18.7610810412       13.7969073847        2.7514495395
  C        15.6867450603       13.5186273007       12.1701581070
  C        15.2195741886       12.1866488533       12.8513422463
  S        14.8704543819        9.6799844032       12.7060962063
  H        14.7150978597        9.4283206997        3.6923499132
  H        14.4979457735       11.1285587285        3.5379657756
  C        12.9193702771        9.9608486247        2.7485345447
  N        17.7814502873       16.9341891343        4.5274065729
  C        18.6494725106       16.5768390824        2.4003353520
  C        19.0146304612       14.3100552878        1.4929157545
  H        18.9876406009       12.7735832709        2.8247686405
  C        14.4870781140       14.5902297356       12.0006986146
  C        16.8558319452       14.0866715863       12.8804898821
  C        14.9124369987       11.8539489321       14.1330793347
  C        14.6624663341       10.4828280105       14.2202167710
  H        12.7573396947        8.8950673357        2.5455996813
  H        11.9801152093       10.4798439913        2.9419775985
  C        13.4115563117       10.4414176146        1.4017547852
  S        17.7110643081       18.3719473159        3.8114797557
  N        18.4618093032       17.9596470451        2.4196666538
  C        18.9733495209       15.7841787803        1.2742383896
  H        19.2871019365       13.6004542463        0.7578491713
  H        14.9304544683       15.5834667208       11.7457068608
  H        14.0823164681       14.7525037748       13.0549103161
  C        13.3148217672       14.2122607577       11.0509163744
  H        17.1651813635       15.0742271339       12.5029301202
  H        16.6056754375       14.3420198173       13.9373073961
  C        18.0708674971       13.1823808044       13.0893010394
  H        14.8546565564       12.6692218971       14.8101383448
  C        14.3362649360        9.6911958679       15.4327533576
  H        14.2580615306        9.9177517231        1.0681349193
  H        13.6259315135       11.5194574739        1.4525864255
  C        12.3879756924       10.1968369903        0.2940477254
  C        19.2560133183       16.4603148746       -0.0055471873
  H        13.3848946468       14.8702157428       10.2525312717
  H        13.4612547812       13.2531864322       10.6317103746
  C        11.9442601129       14.0899518362       11.7908813476
  H        18.5796238097       13.0711706154       12.1424213074
  H        17.7853343556       12.1626644003       13.3710936058
  C        18.9781368584       13.5943632506       14.2026065713
  C        14.0599926837        8.2780722185       15.5459200413
  C        14.0850722870       10.4809086527       16.7113170982
  H        12.2705794990        9.1568741116        0.0655908428
  H        11.4008148385       10.4752791918        0.6025700804
  C        12.7956538134       10.7450282795       -1.1209319175
  H        19.2718876988       17.5124792383        0.0815165511
  C        19.3967323612       16.0646824161       -1.3119314839
  H        11.6488568574       15.0017699351       12.3156754826
  H        11.9914746309       13.2422977632       12.5149617559
  C        10.8563191342       13.7741079124       10.8244978658
  H        18.4316695396       14.0582616139       15.0387498550
  H        19.4796143733       12.6670011624       14.6060705184
  C        20.0813145309       14.4102813331       13.6564933309
  N        14.3920660834        7.3845741458       14.5055493037
  C        13.8533409735        7.7374112946       16.8113587690
  C        13.7095269249        9.8732285562       17.8400063732
  H        14.2024792230       11.5101986685       16.7584580121
  H        13.1288592850       11.8177183383       -1.0875092243
  H        12.0246069383       10.6111418526       -1.9180433204
  H        13.6148000744       10.2116327057       -1.5916386420
  S        19.6749139279       14.4845460694       -1.8589008316
  C        19.4205754327       17.1526453180       -2.3224509914
  H        10.7573421033       14.5712093024       10.0592954238
  H        11.1074536441       12.8922877029       10.2646954787
  C         9.4365942849       13.8506010463       11.4417269032
  H        19.7101693600       15.1986259038       12.9863365605
  H        20.7660615520       13.7891482683       13.0274685724
  C        20.9341937183       15.0925839366       14.7395783466
  S        14.1298531044        5.9076751071       15.1895330249
  N        13.8745701835        6.3283272106       16.7408813097
  C        13.6244763763        8.3908226600       18.0019789340
  H        13.6420302937       10.5108985997       18.6689914510
  C        19.9951814254       15.2742485245       -3.4329197377
  N        19.8862433509       16.6394967836       -3.4501319963
  O        19.3658950580       18.3651547614       -2.0778152631
  H         9.2378642555       12.8026213002       11.7034553893
  H         9.5550811397       14.3510022703       12.3872370703
  C         8.2805987265       14.3485183665       10.5886472843
  H        20.2807412826       15.7052024089       15.3368515050
  H        21.4466494424       14.4730909666       15.4938646225
  C        21.9260090680       16.1016786273       14.1010508115
  C        13.4385882066        7.6935202951       19.2553027156
  S        20.6269620321       14.5304586633       -4.8399578769
  C        20.0342893537       17.4200115687       -4.6721377893
  H         7.5717935876       14.8867563827       11.1264418685
  H         8.5069333615       15.2497497265       10.0594004445
  C         7.7770805908       13.2782608646        9.7095366426
  H        22.0616041146       16.1014294029       13.0266353867
  H        22.8927861287       15.7120120677       14.3177954419
  C        21.7918824588       17.4967255199       14.5968661930
  H        13.7064088759        6.5734241937       19.1914573525
  C        12.8370292043        8.0147747668       20.4886886042
  H        20.8170113622       16.9718553047       -5.2837444838
  H        20.3935176866       18.3786204302       -4.5228106960
  C        18.7815173684       17.3602934774       -5.4503719728
  H         7.2742780152       12.5318444984       10.3744007531
  H         8.5665781377       12.7130570880        9.2626689514
  C         6.9419133035       13.8007004713        8.5449034627
  H        22.3745413169       18.2024062773       14.0126591728
  H        20.7909675941       17.9099910074       14.5485672479
  C        22.3508903075       17.6487860074       16.0429534831
  S        12.1699356370        9.5460535996       20.9247108481
  C        12.8085401908        6.9605024633       21.5762485637
  H        17.9366149933       17.3127887232       -4.7474960024
  H        18.7330384942       16.4904588204       -6.0540242599
  H        18.6287202452       18.2374504522       -5.9991357164
  H         7.1477923750       13.6536834285        7.4894697583
  H         5.9493510562       13.5319626326        8.8157329794
  H         6.8567296676       14.8238403284        8.4961359002
  H        22.1258743498       18.6589368389       16.4307049873
  H        21.9519861933       16.8779835775       16.7290524023
  H        23.4228441043       17.6238117955       16.1095198888
  C        11.9073711944        8.8061052783       22.4912757132
  N        12.1903607064        7.4866366593       22.6186712498
  O        13.2227713282        5.7912919128       21.4495441101
  S        11.1615520860        9.7127686953       23.7978931455
  C        12.0038033337        6.7257993276       23.9162694731
  H        12.1113003570        5.6972039059       23.6071102495
  H        11.0135420630        6.9277410540       24.3016080631
  C        13.2710723822        6.9105390510       24.7698818916
  H        13.5915154261        5.8744834883       24.9878963148
  H        13.0242594077        7.5076632969       25.6601342065
  H        14.1738278112        7.2913596521       24.2131643448
