352
 i =    58800, time =    58800.000, E =        24.7439063358
  H        10.3571875448        4.9237426999       31.2810058129
  C        10.4451314250        6.0005889979       31.2558084126
  H         9.5777624937        6.4155371235       30.8515018799
  C        11.7923139095        6.2540093202       30.5875226155
  C        10.5923333712        6.4085745627       32.7176663533
  C        11.9551682146        5.5707293797       29.1932699401
  H        11.9834288564        7.2922563815       30.5399347229
  H        12.5617092915        5.8501522105       31.2691600011
  H         9.5890144027        6.6053460444       33.1714352172
  H        10.9407795181        5.4919725465       33.2706726017
  H        11.0943209566        7.3122856798       32.9565110026
  C        10.6574748280        5.2721246166       28.4285043981
  H        12.5699750862        4.6772365782       29.4882655420
  H        12.5968701998        6.2477866288       28.6446913441
  C        10.8837052222        5.4274579901       26.8629920074
  H        10.3549496596        4.2377833050       28.6896798598
  H         9.8242115093        5.9230962407       28.6370319599
  C         9.9051171830        4.5799312021       25.9413456562
  H        11.8874006170        4.8930692004       26.8935279972
  H        11.0210198779        6.4835826453       26.6104989471
  C         8.6428072132        5.3722134995       25.6575802895
  H        10.3461603131        4.2709459160       25.0012740686
  H         9.6223285989        3.6707998747       26.3656730182
  C         7.4887497720        4.4937064956       25.0688344386
  H         8.3547813571        5.9094876237       26.5578874232
  H         8.9224644423        6.0516608037       24.8736511859
  C         7.1486822693        3.1544622223       25.7761126803
  C         7.8853386580        3.7219002603       23.8278624312
  C         6.2823355733        5.4359107820       24.7687834289
  C         7.3211620172        2.0364071149       24.9901139164
  C         6.6690460113        2.8494710843       27.0783931636
  C         7.8587206045        2.4105178328       23.7813698079
  C         8.3236144986        4.4402284124       22.7594380900
  H         5.5721672516        4.8551816821       24.2078870752
  H         6.5337311165        6.2330925505       24.0249094980
  C         5.3927106619        5.9532301742       25.8449315589
  S         6.8585370818        0.5824502601       25.8474907501
  C         6.5334587304        1.5047772193       27.3243819460
  H         6.4346640785        3.5616567186       27.7785840695
  C         8.1944941986        1.8606688881       22.5697521124
  H         8.3030346794        5.4830682791       22.8724732063
  C         8.6587785195        3.8601258607       21.5621413201
  H         5.5011611753        5.2721472598       26.6427033483
  H         5.8119165234        6.9132791131       26.3537991252
  C         3.8964478238        6.0254649196       25.5921162597
  C         6.0317198168        0.9706664351       28.5898381142
  C         8.6102765190        2.5288427405       21.4263274094
  H         7.9990690233        0.8054531528       22.6100377844
  C         9.1522771774        4.2498876804       20.3613943296
  H         3.5764218442        5.0825647731       25.1374960262
  H         3.6089711051        6.8370708185       24.8735461548
  C         3.0175280790        6.1839871200       26.8584633236
  C         5.9678389872       -0.3886714586       28.9199078276
  C         5.4861409613        1.9041465007       29.6235706288
  C         8.8592357740        1.8247537975       20.0852014965
  C         9.1841083869        3.2170613974       19.4368300496
  S         9.6880002351        5.7566974593       19.6961259442
  H         2.0848071632        6.6663524879       26.6050643579
  H         3.5392210563        6.8403563501       27.5304656426
  C         2.6788931156        4.8534858137       27.4891104663
  N         6.3976182282       -1.3816013458       28.0727716847
  C         5.6540701412       -0.8487794120       30.2054390294
  C         5.2494638779        1.3964012146       30.8994482022
  H         5.2644778590        2.9429251732       29.4699792716
  C         7.6606097156        1.0562948445       19.5264515366
  C        10.2119777590        0.9831834468       20.0362352814
  C         9.4164584858        3.6433983875       18.1396815116
  C         9.6673700799        5.0148411393       18.1538691395
  H         2.0331863826        4.3830579149       26.7176351545
  H         3.5714602265        4.2475541431       27.6022783729
  C         1.8688312436        5.0084615721       28.7779471709
  S         6.4802491728       -2.7704226660       28.9049781435
  N         5.8386159121       -2.2398689307       30.3348147103
  C         5.2543262698       -0.0476322301       31.2834507587
  H         4.8318463711        2.1148344157       31.6301993918
  H         7.3228675234        0.3097285016       20.2725963861
  H         7.9826110386        0.5503312360       18.5691047913
  C         6.5560580900        1.8897183061       19.0155983874
  H        10.4746814729        0.7992193499       19.0506942603
  H        10.1164079331       -0.0098078399       20.3981747129
  C        11.4249905758        1.6922477663       20.6553749858
  H         9.5107400056        2.9768021343       17.2858718948
  C         9.9599717788        5.7772475015       16.8757259776
  H         1.2741633223        4.1079775628       29.0463723109
  H         1.1692423589        5.8470288424       28.6496611911
  C         2.6761778281        5.4374287201       29.9350606689
  C         4.9231274131       -0.5582462299       32.4884909826
  H         6.7842278248        2.3066106718       18.0401249309
  H         6.3212909012        2.7305833495       19.6945246381
  C         5.3190576280        1.0274901641       18.6574519951
  H        11.2574869385        1.7340017839       21.7665072861
  H        11.5906447003        2.6907027163       20.2483768219
  C        12.6967724098        0.9011496952       20.6829131741
  C        10.0283971127        7.2033346973       16.8591206743
  C        10.3393769820        5.1034398723       15.5838530868
  H         3.3311507783        4.5591172104       30.1367028375
  H         3.3101962654        6.2582906566       29.5699122463
  C         2.0318950845        5.8544762353       31.1806641278
  H         4.8348480094       -1.5901609036       32.4463643187
  C         4.7504300195       -0.0223573486       33.7478385426
  H         4.8653012921        0.5216807356       19.5605815952
  H         5.5942580251        0.1498389536       17.9579537264
  C         4.2526185419        1.9350212350       17.9668749302
  H        12.5590064168        0.0285766305       21.3626390864
  H        12.7559863477        0.2957165957       19.7270120017
  C        13.9149598950        1.7354748232       21.0525413788
  N         9.7693539717        8.1308807756       17.9657022859
  C        10.1725627365        7.9085556043       15.6522967650
  C        10.4957414570        5.8339897956       14.3973835845
  H        10.2492891247        3.9842054673       15.5193127246
  H         1.4347566961        5.1037385215       31.7109068106
  H         2.7024535322        6.1839845927       31.9688386523
  H         1.3017968516        6.5760619203       30.8869226109
  S         4.5094744261        1.6688452295       34.2258539435
  C         4.4358561611       -0.9858996490       34.8216165354
  H         4.0930288839        2.8048336424       18.6630298303
  H         4.5629259065        2.2211153150       16.9720866901
  C         2.9001248411        1.1610601350       17.9394524344
  H        14.0827980116        2.4320825986       20.2279699123
  H        14.7940691141        1.1549179059       21.3282860504
  C        13.7578012760        2.4415272577       22.4046644066
  S         9.7171772672        9.6597562692       17.4130119889
  N        10.0988984216        9.2937693227       15.8482900920
  C        10.4536727201        7.3263144768       14.3911906816
  H        10.6900639150        5.3734784882       13.4872816520
  C         4.1304536511        1.0371712392       35.8456354266
  N         4.1528128544       -0.3105794800       35.9675085778
  O         4.5313053003       -2.2440665791       34.6856200640
  H         2.0398969666        1.8960858969       17.8836322550
  H         2.8879773664        0.7885093058       18.9365802535
  C         2.8780450131       -0.0107726504       17.0338340743
  H        12.9097882825        3.0702553222       22.4303788808
  H        13.4148760465        1.7989891990       23.2088157286
  C        14.9285908929        3.1992309277       22.9448913653
  C        10.7694009684        8.1941438209       13.2758006597
  S         3.6730581357        1.9525465396       37.2440061175
  C         3.9362158200       -0.9647178544       37.2862086131
  H         2.6060394268        0.3463367645       16.0147322060
  H         3.8637434963       -0.5612466284       16.8621577148
  C         1.9193143530       -1.1008190114       17.4855017940
  H        14.5747496611        3.8538576216       23.7437933602
  H        15.2760322411        3.8961389157       22.1454237333
  C        16.0955800577        2.3102951338       23.3506723084
  H        10.4586461721        9.2067361430       13.3786945451
  C        11.4420616711        7.9397635098       12.1564203089
  H         3.3071521751       -0.5304878796       38.0708634234
  H         3.5595887910       -1.9792241655       37.0858329666
  C         5.3545293359       -1.1512149718       37.9400100777
  H         1.8321218777       -1.8644764260       16.6904518469
  H         0.8994687207       -0.7239551724       17.5643560775
  C         2.1741624212       -1.7570199590       18.7935801367
  H        16.7180879283        2.7564145018       24.1811410967
  H        15.7704381126        1.4522758189       23.9020166796
  C        17.1470537777        2.2227053317       22.1553544992
  S        12.2036390264        6.4482437067       11.6597214286
  C        11.4028241402        9.0046863151       11.1327222715
  H         5.2706100696       -2.0066993593       38.6218393545
  H         6.1528702638       -1.3064324609       37.2467929551
  H         5.5441418924       -0.2547118233       38.5515278710
  H         1.5325682510       -1.4879518091       19.6115343652
  H         3.2460343856       -1.5822580973       19.1053492476
  H         2.0980883397       -2.8158153888       18.7344805768
  H        16.7523935753        1.6907099725       21.2745604389
  H        18.0474250796        1.6112019223       22.4407220079
  H        17.3828068935        3.2178628565       21.7786219521
  C        12.4561701333        7.3073462454       10.0896874914
  N        12.0938411730        8.5864597189       10.0389002097
  O        10.9665714356       10.1640232367       11.2330131496
  S        13.0151654740        6.5082017965        8.6249405139
  C        12.0320231565        9.3811251815        8.8703430618
  H        12.5070865510       10.3380348361        9.1551610048
  H        12.7142381456        9.0518668376        8.1746981945
  C        10.7063738914        9.4484837062        8.1012806836
  H        10.5747057579       10.4076263582        7.6760830506
  H        10.6929564476        8.7294961255        7.2237611589
  H         9.9238086759        9.1894676512        8.7435211765
  H        21.2009952876        8.8825877297        3.4754478637
  C        21.9712255549        9.5950832587        3.2057839244
  H        22.9038454353        9.0437740290        2.9016476101
  C        22.2027885190       10.4391742256        4.5304550738
  C        21.3714126981       10.3045435041        2.0111792159
  C        20.9115903042       10.6420743372        5.3076470261
  H        22.8142564875        9.8776559016        5.2026292609
  H        22.6016386417       11.3761960984        4.2911187345
  H        20.5386752306       10.9337348029        2.3571290472
  H        21.1256674517        9.4603786417        1.2396110710
  H        22.2137846804       10.8382589564        1.5850570970
  C        20.4639996909        9.3138993784        5.9238608464
  H        21.0944869240       11.4140003352        6.0236463633
  H        20.1256934739       10.9906132584        4.6142095423
  C        19.7353940140        9.5250690793        7.2887705739
  H        21.2709762184        8.6019555965        5.9746776930
  H        19.6932526239        8.7948520612        5.2775346739
  C        18.4617891288       10.4548143705        7.2525699740
  H        20.4612668122        9.9428632394        7.9873891603
  H        19.3896218509        8.6278123357        7.6543979463
  C        17.3060079787        9.9437970435        6.4938358131
  H        18.2217962616       10.5609259516        8.3258470349
  H        18.7685145213       11.4572143128        6.9167688591
  C        16.0760567132       10.9291321990        6.5511391084
  H        16.9467803771        8.9582097727        6.7578826950
  H        17.5402321273        9.8948182677        5.4340161480
  C        16.4588311307       12.2442164458        5.9862688304
  C        15.8357393402       11.5557583171        7.8681942954
  C        14.7817106246       10.3849486049        5.9136260513
  C        16.2965681287       13.3280320833        6.8071346277
  C        16.8152070334       12.6137056318        4.6799816101
  C        15.8210334004       12.8883265720        8.0193920839
  C        15.5075492438       10.8083039951        9.0101921103
  H        14.9971313534       10.2068646530        4.8615655765
  H        14.5240260470        9.4262269378        6.4341259435
  C        13.5339664471       11.3889642647        6.0165871031
  S        16.7516840659       14.8715757224        6.0253190327
  C        17.1376658891       13.9633220659        4.5862266540
  H        16.8828331729       11.9167383338        3.8792692872
  C        15.4163927770       13.4345105394        9.1736960928
  H        15.4272755256        9.7574883432        8.8195287908
  C        15.2110393447       11.3810054326       10.2212193245
  H        13.7822108251       12.3409596471        5.5903232886
  H        13.1113524317       11.4522470165        6.9893349039
  C        12.4184578405       10.8860589543        5.1910355964
  C        17.7293619093       14.5499540797        3.3728122940
  C        15.2127586490       12.7000791153       10.3477418399
  H        15.4605069703       14.5529907625        9.1659077959
  C        14.8628259136       10.8984068671       11.4875379499
  H        11.3974066131       11.1453651294        5.5314081020
  H        12.3307606407        9.8122271491        5.2907781531
  C        12.5392941342       11.3118993205        3.7531896377
  C        17.8791681877       15.9649603694        3.0687323211
  C        18.2505595204       13.6757668182        2.2950820625
  C        15.0450458076       13.3497486340       11.6936089822
  C        14.7371679120       11.9458830518       12.3677574494
  S        14.5096835864        9.3535102563       12.1901741078
  H        13.6048338666       11.4645292852        3.5803570256
  H        12.0980396703       12.2287702059        3.5288189401
  C        11.9103708181       10.2771376076        2.8179140613
  N        17.4452643176       16.9792733805        3.9409315804
  C        18.2826379009       16.4077014016        1.8561967291
  C        18.6484495772       14.1495801098        1.0538458106
  H        18.2741840115       12.6643128211        2.5611803708
  C        13.7525107992       14.1891166465       11.7922594258
  C        16.3117197553       13.9075478661       12.3253991134
  C        14.4726256498       11.4629011036       13.7113657202
  C        14.3726868752       10.1028835527       13.7580513106
  H        11.6729984227        9.3636105831        3.3080100469
  H        11.0561776305       10.7200513083        2.2286036287
  C        12.9527997358        9.6815033976        1.7821126265
  S        17.6173979072       18.4071130811        3.2131524735
  N        18.2463992518       17.8074267916        1.8286675404
  C        18.5743340591       15.5904394945        0.7611681053
  H        18.8803018930       13.4337001280        0.3443785689
  H        13.7558181712       15.1195432668       11.2110910969
  H        13.5914472596       14.4984887264       12.8097414808
  C        12.5442759965       13.4287780097       11.2855511610
  H        16.6005258152       14.8286030117       11.7664018680
  H        16.0746315694       14.1933991743       13.3070551544
  C        17.4522093760       12.9334723227       12.3714367780
  H        14.1859495035       12.1761760149       14.4948876318
  C        13.8909393202        9.3877943869       14.9902063410
  H        12.4458678003        8.7721950703        1.4317953879
  H        13.8986608790        9.3534429200        2.2631986229
  C        13.1151268716       10.7168377226        0.6659063661
  C        18.8141530394       16.2724507999       -0.4906565585
  H        12.7329231413       12.8830135840       10.4293718137
  H        12.3486634731       12.6005355972       11.9494378819
  C        11.3236395890       14.3222225557       11.0596118979
  H        17.5920364335       12.4829990407       11.3824897445
  H        17.2280304382       12.1839757194       13.1233586749
  C        18.7795855777       13.6050000475       12.7814462490
  C        13.7816388328        7.9643430936       15.0371844492
  C        13.5003900171       10.1022899790       16.1668068510
  H        12.9640366272       11.6818724826        0.9881950742
  H        14.1689086873       10.7073235988        0.3962305181
  C        12.1935636311       10.6130324023       -0.5542838824
  H        18.6698505402       17.3144753197       -0.4420911762
  C        19.2243227645       15.9147542782       -1.7491219671
  H        11.5083693692       15.1010954901       10.3752882469
  H        10.9273451812       14.6827457553       11.9743512972
  C        10.3125183172       13.4600444198       10.2696877945
  H        19.4814035496       13.0135251624       12.1508858247
  H        18.8301418698       14.6129046242       12.3941081965
  C        19.2757510053       13.4192621743       14.2223067179
  N        14.0816674681        6.9998442368       14.0380509296
  C        13.3639408409        7.2902342730       16.2436870312
  C        13.1387820068        9.4716717072       17.3041318140
  H        13.5788391687       11.1371141507       16.1817224213
  H        12.5452700857       11.1289555889       -1.4729059965
  H        11.2215751135       11.1323660555       -0.3302513707
  H        11.8976466966        9.6077144487       -0.8162381191
  S        19.4808090268       14.3172911187       -2.3137113258
  C        19.2903907822       16.9716235170       -2.7790527325
  H        10.6454338773       13.3474216225        9.2192029178
  H        10.2226609898       12.4958600282       10.7082057511
  C         8.9197915929       14.0952455642       10.1916759380
  H        19.3997994158       12.3387721665       14.4197393239
  H        18.5936304432       13.8698333398       14.9378327143
  C        20.7218935368       14.0124450225       14.4722970549
  S        13.9523373919        5.5124458446       14.6238321156
  N        13.3592045129        5.8898881954       16.0834518791
  C        13.1099544753        7.9822125594       17.4216541429
  H        12.7859585799       10.0350553184       18.1844757909
  C        19.7458549854       15.0591716746       -3.9411911336
  N        19.5154889281       16.4290294989       -3.9779022293
  O        19.0253926908       18.1275035585       -2.5013110909
  H         8.3626894031       14.1264509029       11.1544116014
  H         9.1544138491       15.0915119449        9.9372478797
  C         7.9028968130       13.3336968270        9.3084003417
  H        21.3809270145       13.1530726028       14.8638956812
  H        21.0696133952       14.2770900104       13.4910357920
  C        20.6172213362       15.2709619414       15.4005701973
  C        12.9859221001        7.2462861136       18.6605951640
  S        19.9889047553       14.1161824278       -5.4375226768
  C        19.3590455886       17.1482659397       -5.2058249005
  H         8.4512780640       13.0355433694        8.4104723436
  H         7.4861325192       12.3816587162        9.7386359214
  C         6.7158038984       14.1990611272        8.9042867756
  H        20.7371475042       14.8480426873       16.3883047138
  H        19.6470748747       15.7607137230       15.3232944556
  C        21.8177345002       16.2071965201       15.2326659357
  H        13.3422959959        6.1692065911       18.6705752050
  C        12.7024222396        7.5620897138       19.9610341840
  H        19.7317943504       16.7452019159       -6.1231866242
  H        19.9616907083       18.0321282032       -5.1886366971
  C        17.9137722790       17.6733144246       -5.3804884000
  H         6.1899442196       13.6801405901        8.0665945174
  H         7.1090541328       15.2174285419        8.6145465942
  C         5.6095245655       14.5100145002       10.0077127816
  H        21.9872979296       16.7583368429       16.1767022515
  H        22.6910348914       15.5818788173       15.0238390707
  C        21.5443796677       17.1732518933       14.0772785593
  S        12.0409503591        9.0777555999       20.3848928984
  C        12.7598159771        6.4724707436       20.9507240033
  H        17.2185804064       16.9094078948       -5.6311738865
  H        17.8436196940       18.3014977244       -6.2806284105
  H        17.4760985246       18.2138033350       -4.5384295541
  H         4.8251143866       15.1191928539        9.7018648458
  H         5.1471826333       13.5356523933       10.1368694777
  H         6.0416484351       14.8860972525       10.9904047000
  H        20.5671737950       17.0183295804       13.6114486651
  H        21.6934734430       18.1734102451       14.5296514645
  H        22.3320791643       17.0213217717       13.2945447782
  C        11.9322824526        8.2670171416       21.9748880055
  N        12.2594432755        6.9745816546       22.0819952594
  O        12.8820403625        5.2534943600       20.6259603136
  S        11.1405214216        9.0195360316       23.3542704615
  C        12.1125145327        6.1836874531       23.2608754950
  H        12.2700078675        5.1575982478       23.0461549637
  H        11.1611083094        6.2852286966       23.7657355396
  C        13.1772098125        6.5965266518       24.2327329165
  H        13.6846135685        5.6859823746       24.5651354442
  H        12.5368259935        6.8795232010       25.0759027708
  H        13.8023307436        7.3599418840       23.8980211655
