352
 i =    39200, time =    39200.000, E =        24.7419657514
  H        11.8134449635        6.9885694521       32.1151387562
  C        11.6104445308        5.9076547063       32.0752816800
  H        12.5989386478        5.4184529243       31.8168655329
  C        10.4673878179        5.4769367800       31.0908650505
  C        11.2356027275        5.3277904510       33.4636894684
  C        10.7101624222        5.9836510770       29.6742826046
  H        10.4073299638        4.4331665606       31.1154597413
  H         9.5218964367        5.6955650070       31.5075322999
  H        12.0169771345        4.5945436588       33.6520822667
  H        11.2005535587        5.9816790193       34.3367942890
  H        10.3214934592        4.8149631215       33.4986666345
  C        10.5998014998        4.9127347997       28.6497306184
  H        11.6897043999        6.3777945216       29.5900488625
  H         9.9621942488        6.7419729632       29.5025459925
  C        10.6827051609        5.5613256989       27.2087555472
  H        11.3719535695        4.1574547352       28.7002137010
  H         9.6413498802        4.4022418691       28.7839207057
  C         9.8326844793        4.8007986826       26.1262113540
  H        11.7374823789        5.4183055449       27.0676540693
  H        10.4368394976        6.6475861232       27.3535929402
  C         8.5285634955        5.5776400024       25.8789112949
  H        10.3592188131        4.8093557177       25.2202762753
  H         9.7287386216        3.7393544010       26.2087822739
  C         7.3274561023        4.7963386927       25.3096749642
  H         8.2339310514        5.8784994035       26.8218289087
  H         8.6373001224        6.5886259297       25.3158735386
  C         6.9550867944        3.4388399840       25.9695192716
  C         7.7780821971        4.1671209460       24.1228736356
  C         6.0969342582        5.7681826764       25.0544550963
  C         7.3483911135        2.3350771457       25.2100761672
  C         6.3802740589        2.9970638470       27.1965119274
  C         7.8574210030        2.8059447528       23.9633471289
  C         8.1458276883        4.8492621355       22.9566091652
  H         6.3706206212        6.3997713294       24.1623303176
  H         6.0425510722        6.4811779429       25.8989639880
  C         4.7617568428        5.0687886320       24.7599225938
  S         6.8781876893        0.7796227826       25.9788791352
  C         6.1846314391        1.6371498220       27.3618407962
  H         6.1125290863        3.7338161588       27.9433934916
  C         8.2974722646        2.1851253447       22.8101959659
  H         7.9581488704        5.8875786565       22.9833567902
  C         8.5169004308        4.3027679876       21.8229978249
  H         4.8089506971        4.5290013960       23.7905725732
  H         4.5672423720        4.4072529628       25.5113327276
  C         3.5145961523        6.0353000227       24.6167457166
  C         5.6751401989        0.9628167371       28.5171735187
  C         8.6335252435        2.9562810365       21.6815159023
  H         8.3508966783        1.0980522164       22.7374791208
  C         8.9313602605        4.7021952767       20.5679156168
  H         2.8282971549        5.4370643637       23.9676051675
  H         3.8024038486        6.8799211791       24.0326646964
  C         2.7690083631        6.3623746216       25.9637607291
  C         5.7695831787       -0.4146136802       28.7977567107
  C         5.1215630094        1.8008731140       29.6162481447
  C         9.0547621731        2.2804205271       20.4520560983
  C         9.1831076273        3.5922633379       19.7529253568
  S         9.2201555697        6.2338317777       19.7679834765
  H         2.0116331153        7.1100713756       25.8695961814
  H         3.5074580417        6.7346022105       26.6299202193
  C         2.1581235588        5.0365897089       26.4673411139
  N         6.1372118185       -1.3654504492       27.8496008499
  C         5.4907733448       -0.9649019713       30.0202825725
  C         4.9520819813        1.2769025227       30.8791191887
  H         4.9248309863        2.8316360598       29.4341900482
  C         7.8914514628        1.4622259991       19.8765239392
  C        10.4346171233        1.6264109343       20.5430808078
  C         9.4842213408        3.9188985764       18.4739070186
  C         9.6317420716        5.3383735652       18.3310957444
  H         1.4414650579        4.6248803940       25.7776608923
  H         2.9717734077        4.4030013395       26.7672568292
  C         1.1630104419        5.3242767194       27.6948778968
  S         6.2059610358       -2.8740149623       28.5138115723
  N         5.7048662522       -2.3807992091       29.9525363200
  C         5.1282536276       -0.1813838009       31.1544769929
  H         4.6556778098        2.0235839038       31.6759895892
  H         7.6906621409        0.5210143956       20.4329817287
  H         8.2173679794        1.0116519114       18.9502766117
  C         6.6311139598        2.2654774449       19.5207836763
  H        10.7728322851        1.0083857704       19.7192947166
  H        10.3308625131        1.0142409077       21.4188152267
  C        11.5747471916        2.5392809825       20.7632208551
  H         9.5697224102        3.1151755537       17.7486105602
  C        10.0328641464        6.0806801752       17.1048591984
  H         0.5318152753        4.4947150482       27.9213249481
  H         0.4902220809        6.1304437660       27.4037223284
  C         2.0423704471        5.6934301693       28.9423557190
  C         4.8863997498       -0.8367258492       32.4136073469
  H         6.7989340130        2.9216201390       18.7459614789
  H         6.1773973954        2.8588735300       20.3055615403
  C         5.6167691062        1.2766145310       18.9650503216
  H        11.4298310724        3.1380751010       21.6702198021
  H        11.6416930784        3.1557516218       19.9371943930
  C        12.9460506219        1.8723766048       20.8518699548
  C         9.9829879431        7.4923986947       16.8902343382
  C        10.2594091340        5.3180161152       15.8255442914
  H         2.9143897037        5.0295455284       28.9001989678
  H         2.4763148977        6.6777531894       28.8379098657
  C         1.3484126350        5.4765481526       30.2486243719
  H         4.9333535797       -1.8963272438       32.3426340828
  C         4.5640164120       -0.4139667732       33.6567570324
  H         5.0790210861        0.8150344146       19.7715762289
  H         6.1450307863        0.5244549856       18.3215420418
  C         4.6820238352        2.0481203442       18.0300304117
  H        13.0735537766        0.9874059978       21.4920697464
  H        13.3071013837        1.4678080713       19.8466009346
  C        14.1048905570        2.8111774428       21.2320077655
  N         9.7111159025        8.4275749393       17.9637917862
  C        10.2281740920        8.0867250477       15.6584927821
  C        10.4979683762        5.8852493718       14.5939075329
  H        10.0703430370        4.1766233364       15.8861039729
  H         0.7810074819        6.3886352290       30.5099882349
  H         0.6923635051        4.6131747355       30.1175228923
  H         1.9995582845        5.0591613765       30.9995427099
  S         4.4174924253        1.2409159646       34.2554776169
  C         4.4430884822       -1.3638092646       34.7333552372
  H         4.8298146867        3.1315326147       17.8732370917
  H         4.8187483952        1.5355505082       17.0321810678
  C         3.1979461098        1.9252869326       18.5089673250
  H        13.9584278946        3.8566257746       21.0377444901
  H        14.8482462646        2.5189422586       20.4777082786
  C        14.5414737956        2.7280972284       22.6854881751
  S         9.9011482012        9.9342284271       17.3486401792
  N        10.1582064078        9.4705917530       15.7512996302
  C        10.5727226914        7.3536261249       14.4852329201
  H        10.4781120523        5.2665104830       13.7523243812
  C         4.2939771929        0.6060913731       35.7760032045
  N         4.2937746580       -0.7287882893       35.9148040904
  O         4.5624848195       -2.5729452551       34.6036376239
  H         2.6458250246        2.5988032095       17.9007749442
  H         3.0466902048        2.3983935212       19.4918099302
  C         2.6944441132        0.4718931591       18.3982352339
  H        14.9288134049        3.7103727268       22.9471468539
  H        13.6538871811        2.5275991081       23.2294512518
  C        15.4837223015        1.5506747989       22.8658502148
  C        10.8402390339        8.0773272721       13.3199948319
  S         4.0034097401        1.5884488732       37.1908832193
  C         4.2640783913       -1.4439350893       37.1655464435
  H         3.3249778688       -0.1305703236       18.9781178433
  H         1.7242150559        0.3709747741       18.7002235800
  C         2.7633616395       -0.1787388824       17.0222958004
  H        15.6350653755        1.0195919134       21.9490830302
  H        14.9268801198        0.7602878946       23.4070468133
  C        16.8623242137        1.7746760504       23.4953892676
  H        10.5771250156        9.1256729993       13.4021973846
  C        11.3624397537        7.7390842627       12.0966817902
  H         3.5271355024       -0.9517080594       37.7823414563
  H         3.8919458848       -2.4100947698       36.8390681033
  C         5.7241671801       -1.5236070118       37.7067651447
  H         3.8090440854       -0.5323073940       16.7238553614
  H         2.5928714529        0.5878934191       16.3313555695
  C         1.8489160424       -1.3666434083       16.8886393110
  H        16.7615536370        2.6032219110       24.1564872433
  H        17.0931187044        0.8749189492       24.1110334496
  C        18.0194448914        2.1053722174       22.5150995154
  S        12.0226082182        6.2150359355       11.5938239491
  C        11.3726136697        8.8472924987       11.1239911261
  H         6.0520772544       -2.5531950745       38.0251722757
  H         6.3600757621       -1.2994292958       36.8552040908
  H         5.9877951987       -0.8357274282       38.4975590161
  H         2.2469283533       -2.0033586768       16.1252030218
  H         0.8464059279       -1.0218152398       16.6671820385
  H         1.7979064080       -1.9397725363       17.7778873218
  H        18.9342986320        1.9174918749       23.0101440174
  H        17.9186123995        3.0865467485       21.9984483679
  H        18.0696606783        1.3418356311       21.7550513547
  C        12.2534786909        7.0152622397       10.0143046399
  N        11.9661377447        8.3311065091       10.0235997924
  O        10.9830252838       10.0112754160       11.3541654262
  S        12.7298870193        6.2651695071        8.4810348056
  C        12.1199456180        9.1761206705        8.7982420335
  H        12.5127233656       10.1768577052        8.9672035074
  H        12.9479743984        8.8222633643        8.1620777341
  C        10.7190626042        9.2340920705        8.0968633707
  H        10.2363903481       10.2066598515        8.3122493112
  H        10.7553860287        9.1528025379        7.0327939897
  H         9.9590479448        8.4285824929        8.3855435620
  H        21.0752209133       12.0604110155        3.7169437732
  C        21.6709630846       11.1009774457        3.6180952762
  H        20.9957353454       10.2390405408        3.6783182552
  C        22.5523776654       11.0506718193        4.7947853041
  C        22.5076016670       11.0841595391        2.3057146123
  C        21.7479125810       11.0825410329        6.0543580698
  H        23.2309909232       10.1909974930        4.7800260785
  H        23.2942927725       11.8557890845        4.5696110966
  H        21.7901957436       11.2535593813        1.4620016546
  H        22.9424750367       10.0835916483        2.1298617119
  H        23.1483683517       11.8756551118        2.2579949226
  C        20.9881515690        9.7465098717        6.4311107001
  H        22.4230844952       11.2957673784        6.8816552681
  H        21.0975878527       12.0117187953        6.1379144028
  C        20.1435077109        9.8650994864        7.6515391955
  H        21.6944111766        8.9177240458        6.4958540324
  H        20.2175290182        9.4882313221        5.6767654944
  C        18.9752228369       10.9030619415        7.6381357028
  H        20.7815571712       10.0932267258        8.5879318804
  H        19.7626536805        8.8907250759        7.9775399044
  C        17.7159036873       10.2437356455        7.2354278928
  H        18.8667627729       11.4310138933        8.6079544002
  H        19.2598131304       11.7365159692        7.0124462298
  C        16.3955904645       11.0804527603        7.0234496436
  H        17.5798701090        9.4525976314        7.8457114474
  H        17.8493671976        9.7060517394        6.2780650589
  C        16.7617405512       12.4841644483        6.4448108852
  C        15.9088517522       11.7412132108        8.2196802591
  C        15.3355565106       10.3327988271        6.2412463964
  C        16.3717669059       13.5541676700        7.2242814226
  C        17.5140226366       12.9078183142        5.3489633777
  C        15.8400897286       13.0882901051        8.4034187266
  C        15.3876882162       10.9961126903        9.2777024474
  H        15.7613974145       10.0937113392        5.2882031464
  H        14.8578270145        9.5143456448        6.6861061447
  C        14.0993318988       11.2783586738        5.9082412687
  S        16.6170111315       15.0352351903        6.4917005004
  C        17.3931089777       14.2083765119        5.1550961204
  H        17.8308367680       12.1511405697        4.6371151470
  C        15.3385591050       13.6284546489        9.5008175301
  H        15.3553746782        9.9111458548        9.1884715243
  C        14.9735772357       11.5750496199       10.4693071795
  H        14.5112686526       12.1347609300        5.4151064545
  H        13.5352920254       11.6783734957        6.7541490937
  C        13.0929849448       10.7883890488        4.9405692381
  C        17.8229456095       14.8471663969        3.8342331188
  C        14.9449244242       12.8859475860       10.6106235110
  H        15.2956600755       14.7019386825        9.6214844518
  C        14.6053960913       11.0757514577       11.6733997897
  H        12.0881733518       11.0612431140        5.2345101861
  H        13.0242380816        9.7054876555        4.9728955513
  C        13.3384619533       11.3834619418        3.5973672510
  C        17.8650892185       16.2844409112        3.6652577030
  C        18.4166159912       14.0079718161        2.7967629653
  C        14.5197752823       13.4655678706       11.9541421934
  C        14.4086585292       12.0925218755       12.5756229306
  S        14.3938355963        9.4961714393       12.3374785617
  H        14.3590416594       11.2972590079        3.3943621941
  H        13.1047217732       12.4572512785        3.5227393955
  C        12.6261757090       10.5672378487        2.5004753028
  N        17.4830836679       17.2660476743        4.6279061024
  C        18.3260302562       16.8126257094        2.4980260317
  C        18.7900734579       14.5793113216        1.6005400764
  H        18.3591755243       12.9504899800        2.8540905730
  C        13.1865189700       14.0989648816       11.7844368817
  C        15.6193283946       14.3369955064       12.5962489619
  C        14.0480749908       11.6563313597       13.8093502792
  C        14.0660552467       10.2487048614       13.8636118919
  H        12.6705630935        9.5159410861        2.7101446484
  H        11.5676297602       10.6861121099        2.5582925340
  C        13.1236736073       11.0051798711        1.0705486927
  S        17.5220527886       18.6753040978        3.8844421203
  N        18.0681386305       18.2545145545        2.4005767256
  C        18.5771175102       16.0481756670        1.3256251292
  H        19.2579192110       14.0533402518        0.8236826741
  H        13.2336089972       15.1088082799       11.3014875825
  H        12.8520076572       14.4080081632       12.7561665304
  C        12.1024750497       13.3004577263       11.0662168219
  H        15.7695246918       15.2798887417       12.0649331342
  H        15.2283771814       14.6740128437       13.5608046087
  C        17.0015379673       13.6263713920       12.9813023553
  H        13.8514623353       12.4198582032       14.6020521460
  C        13.9856177159        9.4720038935       15.1486215465
  H        14.0867405708       10.5532600862        0.8362024009
  H        13.2093399732       12.0760717431        1.1670627330
  C        12.1682731781       10.6652889321       -0.0057057355
  C        19.0125193095       16.7136198232        0.1254508552
  H        12.3972213681       13.1734417893       10.0611935274
  H        11.9662897119       12.3924674812       11.5844224240
  C        10.7148532471       13.9144877069       11.1029355636
  H        17.6249673676       13.2733450329       12.1735219938
  H        16.7890022549       12.7450019517       13.5309875263
  C        17.6529547706       14.6288861537       13.9146669261
  C        13.8462347478        8.0869758223       15.3295185377
  C        14.0485502869       10.2613756241       16.3728742501
  H        11.8795327501        9.6315092943        0.1478621802
  H        11.2241714824       11.2545922669        0.0871090711
  C        12.7258933326       10.9323444554       -1.3928872213
  H        19.1261089457       17.7670314224        0.2922513979
  C        19.3454071225       16.2436606944       -1.1108882020
  H        10.7570715814       14.6948293999       10.3313276690
  H        10.6551956440       14.2824709665       12.1294953518
  C         9.5742784528       12.9502433958       10.7754839710
  H        17.8504509612       15.6001360838       13.4810491913
  H        16.9161037523       14.7920452547       14.7346440140
  C        18.9336581461       14.0447756736       14.5395779618
  N        13.9395394253        7.1473570114       14.2728366989
  C        13.5227615278        7.5317230217       16.5386213643
  C        13.6898306131        9.7017771681       17.6301673298
  H        14.3070075712       11.2892609191       16.3229570767
  H        13.3773876005       11.8350356109       -1.1990130103
  H        11.9840247029       11.3791767770       -2.0670309704
  H        13.2191003718       10.0453285780       -1.8445680179
  S        19.3811468965       14.6183329920       -1.7252527354
  C        19.5692016569       17.2966665756       -2.0981444003
  H         9.8696173567       12.2113866634        9.9706629781
  H         9.3422219404       12.4059330607       11.6794455138
  C         8.3398844410       13.6032030524       10.1765925961
  H        18.7972435231       13.0076089448       14.7314641727
  H        19.1465573044       14.5421343215       15.4915297263
  C        20.1659470749       14.1319734594       13.6456737823
  S        13.9322513190        5.6954926985       14.9325175034
  N        13.3617289304        6.1498997842       16.4311054047
  C        13.3979266578        8.2763063887       17.6761184175
  H        13.6862090789       10.2811882241       18.4930654111
  C        19.6537321648       15.3636962531       -3.2547783008
  N        19.8668770598       16.7222320688       -3.2570684246
  O        19.5969208351       18.5205784904       -1.8789394665
  H         7.5588897185       13.8495409470       10.8611980157
  H         8.7520321022       14.5613489859        9.8309321648
  C         7.8163508403       12.9439402851        8.9086910452
  H        20.2101989313       13.3186314721       12.9592198372
  H        20.1197624708       15.0813456230       13.0545782970
  C        21.5265971455       14.2621962599       14.4192619786
  C        12.9389126763        7.6607062444       18.8891465660
  S        19.8379877040       14.5477047316       -4.7721910069
  C        19.9692335403       17.5025200034       -4.4328158127
  H         8.6395078192       12.8932624622        8.1074865356
  H         7.6951128240       11.8433935542        9.0670090323
  C         6.6819224931       13.8124573250        8.4414404120
  H        22.3662919784       14.0196773432       13.7657978982
  H        21.4307432679       13.5920012709       15.2429096835
  C        21.7359382461       15.6848002215       15.0582272741
  H        12.8326825567        6.6078263834       18.8966484099
  C        12.3526695528        8.1191127585       20.0518572130
  H        20.7131578772       17.2480226773       -5.2073313415
  H        20.2611369776       18.5571067382       -4.1145946278
  C        18.7387869703       17.6715786301       -5.2100634190
  H         6.3543328183       13.4543495862        7.4632471456
  H         7.1698017840       14.8290914297        8.2349052979
  C         5.4767650866       13.8192667876        9.2704546590
  H        20.8601437075       16.0347757373       15.6003499458
  H        22.4600932361       15.5448168013       15.8162277039
  C        22.2477196313       16.6145112417       14.0160520232
  S        11.9887498114        9.7579543020       20.3529936024
  C        12.0195105940        7.1578053133       21.1507020234
  H        18.6956952922       17.2634656473       -6.2319636329
  H        18.3902988736       18.7147091326       -5.2123303525
  H        17.9109919533       17.1928507641       -4.7083942488
  H         5.5681650110       14.1292750099       10.2549870787
  H         4.7007937634       14.3606860273        8.7801562309
  H         5.0133600857       12.7752343612        9.4573438615
  H        21.7028324619       16.4916980092       13.0590014519
  H        22.2053190834       17.6978267479       14.2800866926
  H        23.2054960371       16.3154155540       13.8192496669
  C        11.4239780996        9.2241400350       21.9131512371
  N        11.4694206162        7.9257638899       22.1197516531
  O        12.2228147018        5.9368683006       21.1361226518
  S        10.6668339896       10.2243072142       23.0458873518
  C        11.1432276058        7.2989182852       23.4010294135
  H        10.6312763542        6.4102451100       23.0676967154
  H        10.3208260305        7.8331952806       23.9097257399
  C        12.4618710722        6.9149572236       24.1293286347
  H        13.2264547050        7.6786831389       24.0209765489
  H        12.8403520986        5.9336849948       23.8581172202
  H        12.2451771671        6.7132100589       25.1898941064
