352
 i =    94400, time =    94400.000, E =        25.3874809152
  H         9.6847888481        6.1766042851       31.7592247698
  C        10.6919479406        6.4375996062       32.0624500029
  H        10.6504214877        7.5117845279       32.3034396663
  C        11.8419982153        6.2513144920       30.9493345491
  C        11.1415465129        5.8815536209       33.3936651410
  C        11.3928521617        5.3791505562       29.7809310526
  H        12.2789091264        7.2128580910       30.6736385675
  H        12.7134100733        5.7715462546       31.5058347215
  H        12.0993936363        6.3380571072       33.7154798996
  H        10.4261792626        6.2630346004       34.1459289093
  H        11.3860272675        4.7816879927       33.4959226698
  C        10.4241097969        6.0835149930       28.8247533112
  H        10.8683051816        4.5092228160       30.1856480487
  H        12.2764639452        4.8940215210       29.4004768276
  C        10.7697000090        5.7695427947       27.3338096346
  H         9.4209027106        5.8514961059       29.2025686529
  H        10.4201537295        7.1469987206       28.8373049530
  C         9.7543263229        5.1436877203       26.5166826231
  H        11.6686185030        5.0998692735       27.2973400849
  H        11.0568774304        6.6885889354       26.8553944718
  C         8.5097665426        6.0658714200       26.1708089092
  H        10.1492634479        4.6806087572       25.6640112676
  H         9.4428626097        4.3440833355       27.0994174275
  C         7.4881905201        5.1849010608       25.4214312064
  H         8.0206655369        6.4640741863       27.0610862617
  H         8.8312998089        6.9833033456       25.6218955629
  C         7.1548372956        3.8294207426       26.0910811450
  C         8.0361135707        4.4786733860       24.2623281295
  C         6.2320510329        5.8356649938       24.8576808070
  C         7.4792748585        2.7271527836       25.3071926407
  C         6.6667516837        3.4479593720       27.3396332466
  C         8.0688530200        3.1268973588       24.0830675723
  C         8.6619381351        5.2309919334       23.2117341705
  H         5.7475224819        5.0799491106       24.3827947941
  H         6.3817271098        6.6541310426       24.1236472555
  C         5.3582581371        6.3982738446       25.9644462205
  S         7.0451624852        1.1971399715       26.0878910483
  C         6.5817180046        2.0738028374       27.4728832879
  H         6.3559645638        4.1196542166       28.1278258910
  C         8.5629470667        2.6141739809       22.9157496272
  H         8.7033415380        6.2651597198       23.2846177714
  C         9.1268534583        4.6452590565       22.0610784022
  H         5.3335944076        5.7722983354       26.8359438372
  H         5.6401174797        7.2942082758       26.2921031541
  C         3.8563428672        6.4687530295       25.5102752399
  C         6.1912657393        1.4223883257       28.7518895610
  C         9.0733964789        3.3452776618       21.8406733749
  H         8.3137161526        1.6012750359       22.6420493519
  C         9.5419428996        5.0648581259       20.8078624863
  H         3.4555954660        5.4801347946       24.9767742113
  H         3.7902313014        7.1558234577       24.7012013828
  C         2.9845889880        6.8565790625       26.7035655729
  C         6.2475839158        0.0770952385       29.0220904291
  C         5.4413080159        2.2086326832       29.7289581312
  C         9.5200615712        2.6573197656       20.5811888045
  C         9.8490997406        3.9881790194       19.9655319169
  S         9.6727861998        6.6122958559       20.0338656296
  H         2.2732967445        7.6052884456       26.3910879818
  H         3.5691205986        7.4530777762       27.3566201232
  C         2.3604790090        5.5835727384       27.3786231634
  N         6.7374783324       -0.9153435591       28.1850850827
  C         5.9749782377       -0.4032584553       30.2448481971
  C         5.1855363264        1.7771465545       31.0149224167
  H         5.2635301708        3.2015659629       29.6375552021
  C         8.3096556717        1.8762611677       19.9333711634
  C        10.7780090079        1.7247757487       20.7752032160
  C        10.1951991304        4.4863889521       18.6824053089
  C        10.1171460327        5.8383587199       18.5587127175
  H         1.8394890702        4.9705706520       26.6648920268
  H         3.2084132075        5.0016341165       27.6695839371
  C         1.3888396151        5.8227946999       28.5123040734
  S         6.6863177739       -2.3726852630       28.8844421377
  N         6.1900031870       -1.8037675275       30.3240178071
  C         5.3852925063        0.3698166062       31.2984701649
  H         4.7668458027        2.4840622190       31.7596366317
  H         8.0583943470        1.0268848000       20.5266385048
  H         8.7694625118        1.4304703401       18.9701057360
  C         7.0516256239        2.7392056153       19.6522096316
  H        10.8833756858        1.1060919966       19.8418325457
  H        10.5647420891        1.0751898752       21.6098970560
  C        12.0029500964        2.4704845673       21.1615040634
  H        10.3879423029        3.7158395649       17.9019651265
  C        10.3470534740        6.5911594283       17.2742865834
  H         0.8138831049        4.9532929178       28.6497623835
  H         0.6386753962        6.5716522842       28.2253230521
  C         2.0889973565        6.3093190021       29.7322546791
  C         5.0785392777       -0.3372133665       32.5070070825
  H         7.3400298734        3.4357235735       18.8596254790
  H         6.8240730859        3.2691671849       20.5108830222
  C         6.0212121045        1.7783330979       19.0021365088
  H        11.8568707889        3.0646734133       22.0373003981
  H        12.2865354504        3.1335568206       20.3749577715
  C        13.1896365366        1.5168608980       21.4693465314
  C        10.3519138810        8.0054409767       17.2220947654
  C        10.7108538433        5.8980663485       16.0182866544
  H         3.1521157730        6.5010505904       29.5601833546
  H         1.5333074853        7.2360360057       29.8129352768
  C         1.8115514906        5.4504057535       30.9528754144
  H         5.2221417440       -1.3934481900       32.4989007404
  C         4.7873282903        0.1515046768       33.7582738199
  H         5.9186180643        0.8759200635       19.6755485682
  H         6.6177902034        1.3125124958       18.2174620903
  C         4.8355976487        2.4617712414       18.3113110387
  H        12.9373613492        0.9048476494       22.3279091742
  H        13.4170370595        0.7710821057       20.7331389495
  C        14.3917336214        2.3586071553       21.9188755339
  N        10.1033983957        8.8377924769       18.2803199160
  C        10.6051235299        8.7095150660       16.0369047342
  C        11.0524722590        6.6314590146       14.8403505789
  H        10.7077125833        4.8227638535       15.9691419075
  H         1.1526196069        5.9792537281       31.6857341206
  H         1.1595877612        4.6430325117       30.6747648636
  H         2.7943025555        5.1649713081       31.3016745294
  S         4.6015187517        1.7758566131       34.2549852770
  C         4.8077585435       -0.8784405610       34.8431867773
  H         4.6040071906        3.5066589332       18.6241751716
  H         5.2486335193        2.6311639565       17.3072961299
  C         3.5852522174        1.6086072521       18.0256170464
  H        14.0605908957        3.3784944086       22.1328243893
  H        15.0922958007        2.6276851409       21.0770452477
  C        15.2413980006        1.5492196308       22.9471234080
  S        10.2120012148       10.3679233464       17.7736818923
  N        10.6355600901       10.1420266889       16.2657048751
  C        10.9463899075        8.1226971777       14.7968321267
  H        11.2903529659        6.1336750481       13.9783898279
  C         4.5083660136        1.1042004591       35.8715990368
  N         4.6010567986       -0.2682653108       35.9920574608
  O         4.9345659182       -2.1122563044       34.6921252405
  H         2.9569235792        1.9903775498       17.2026599092
  H         3.0703248853        1.8161238235       18.9307534473
  C         3.8720947314        0.1499508199       17.9428175763
  H        14.6850475284        1.1456568629       23.8058372562
  H        15.7399488803        0.8166420596       22.3773984473
  C        16.2883802601        2.5153496920       23.6088708285
  C        11.1533942989        8.9069408199       13.6175833568
  S         3.8943073144        1.9315804791       37.3393283743
  C         4.8160800692       -1.0089391238       37.2935764684
  H         4.7199076533        0.1038390582       17.3385990649
  H         4.1737673037       -0.3497504613       18.9400361470
  C         2.6862567169       -0.5317565661       17.2848331855
  H        15.7743719161        3.0276367322       24.3766300308
  H        16.5265162711        3.2773415007       22.8278306569
  C        17.6158984348        1.7940430718       23.9658855099
  H        10.9774479959        9.9180774261       13.9078043638
  C        11.6941675615        8.6511681366       12.3275361570
  H         4.0526741846       -0.7881210113       37.9535481779
  H         4.5654877921       -2.1199799979       37.2157099261
  C         6.1852462009       -0.9130229049       37.9274887316
  H         2.5895360234       -0.0596610450       16.3790852652
  H         1.7448255657       -0.3951198168       17.8165317139
  C         3.0141376795       -2.0551845099       17.2928888252
  H        18.0423846136        2.3304348259       24.8659447646
  H        17.5001261325        0.7882604839       24.2220598308
  C        18.6752814748        1.9138837916       22.8932881771
  S        12.4626100929        7.2168886453       11.7666063451
  C        11.7909416163        9.8131182666       11.3658028408
  H         6.1848157743       -1.6485706865       38.6508487682
  H         6.8639455790       -1.1157758485       37.1470048148
  H         6.2979671019        0.0500907469       38.2560841088
  H         2.8981020474       -2.5446832280       18.2445733063
  H         4.0277408376       -2.3051680548       17.0115973543
  H         2.4434626397       -2.6024620222       16.5178745687
  H        19.5956750829        1.3376119500       23.1287986399
  H        18.9805932998        2.9253813838       22.6144662956
  H        18.3896969147        1.5170370936       21.9443444772
  C        12.7082186464        8.0425459415       10.1990538158
  N        12.2650029286        9.3648246963       10.1941403638
  O        11.3935848438       10.8916843279       11.6039249466
  S        13.4288879428        7.4254600700        8.7234865765
  C        12.3347176510       10.2150175045        9.0168850657
  H        12.4639418419       11.2369088871        9.4216056920
  H        13.2342255889        9.9197598183        8.4917678928
  C        11.0960845931       10.1110804052        8.1141352164
  H        11.3602004956       10.3295773328        7.0716197387
  H        10.7879929218        9.0960398592        7.8801685834
  H        10.3103976277       10.7828807532        8.4026563485
  H        21.8569568775       11.1134319266        3.3894748669
  C        22.3638800124       10.1219351914        3.6429612617
  H        21.6678684958        9.3229248961        3.5948015726
  C        23.2599114338       10.2455340927        4.8265370009
  C        23.2026555135        9.8441185218        2.3660594656
  C        22.5164254224       10.3241578426        6.1538328721
  H        24.0395508868        9.4600593846        4.8246006250
  H        23.7323485609       11.1934924038        4.6858415801
  H        24.2837753396        9.8760223532        2.6149317133
  H        23.0726546554       10.5498590614        1.4749983856
  H        22.9159746769        8.8782916050        2.0587475891
  C        21.6810688151        9.0732487617        6.4724899667
  H        23.3649410516       10.4035655304        6.7929447959
  H        22.0082540920       11.2994365297        6.2309721552
  C        20.5541921389        9.4487404518        7.4740829891
  H        22.3432576899        8.3058577081        6.9024242463
  H        21.2577141700        8.6541362767        5.5628257343
  C        19.3026315428        9.9865571040        6.7737017301
  H        21.0224849928       10.1372855769        8.2083391834
  H        20.1998588183        8.5991445903        8.0448905775
  C        18.0293046696       10.0649868194        7.6904835761
  H        19.4659834585       10.8995654341        6.1901357390
  H        19.0979649748        9.2921803173        5.9020679641
  C        16.8955714269       11.0021662648        7.3677716781
  H        18.2861965224       10.3206513604        8.6768547467
  H        17.5942498516        9.0807851016        7.7769442871
  C        17.3230587588       12.3565540381        6.6895861515
  C        16.4237107301       11.7930941399        8.5619570132
  C        15.6840857255       10.4391344891        6.5214207734
  C        16.9939860855       13.4525929313        7.4425972640
  C        17.8215464399       12.6061133747        5.3821515607
  C        16.4885031498       13.1302409183        8.6922908311
  C        15.9482976650       11.0984423294        9.6567610659
  H        16.1556022892       10.1112233270        5.5425903652
  H        15.2395627430        9.5316433569        6.9541506970
  C        14.5184906919       11.3822535135        6.2627926756
  S        17.3587614730       14.8941844299        6.5880101998
  C        17.8305673091       13.9407897051        5.1432443601
  H        17.9428682369       11.7656716550        4.7364218193
  C        16.0936178669       13.6751601235        9.9055809677
  H        15.7657231255       10.0762086019        9.4869550847
  C        15.5989256661       11.5912758321       10.8768640166
  H        14.9051544042       12.2318012694        5.6542979187
  H        14.2464886700       11.7258039063        7.2099439178
  C        13.4329854738       10.7829428190        5.3579537714
  C        18.2544642223       14.5591718005        3.8335861045
  C        15.7116955755       12.8981519034       11.0645771965
  H        16.1163470391       14.7851713606        9.9752665285
  C        15.1230251515       11.1061260288       12.0527025007
  H        12.6249427909       11.5332410835        5.3937848631
  H        13.0721922120        9.7964506081        5.6757134224
  C        14.0513484226       10.6677468015        3.9155906249
  C        18.3139228241       15.9578025811        3.4979469662
  C        18.7175362285       13.7057768038        2.7117613876
  C        15.3295529123       13.5037107303       12.3108189038
  C        14.9591047348       12.1729540080       12.9191576025
  S        14.7357191822        9.5845152123       12.7039060024
  H        14.6834677208        9.7972750532        3.8629102341
  H        14.7670792693       11.4606999588        3.6424455061
  C        13.0382485429       10.7923303708        2.8493920796
  N        17.9847689859       16.9710796554        4.3535027082
  C        18.6554259804       16.4388011867        2.2160558748
  C        18.9812084183       14.1353644087        1.4200865903
  H        18.6155212642       12.6490022650        2.8275707890
  C        14.1742220036       14.5131501091       12.0765065020
  C        16.4832642949       14.0983336163       13.1730864975
  C        14.4437837509       11.7443587264       14.1349732797
  C        14.3157001453       10.4109527529       14.1869381328
  H        12.1673955225       10.1486481491        3.0736104307
  H        12.6377063535       11.7866288197        2.8508024605
  C        13.6042506348       10.7230072060        1.4210434326
  S        18.1576842901       18.4026435913        3.5691134179
  N        18.5159666994       17.7770279042        2.0945724055
  C        19.0125275698       15.6007904184        1.1266329373
  H        19.0857254373       13.4230939651        0.6584167376
  H        14.5937019224       15.4061157303       11.6095601228
  H        13.8762929391       14.8717605573       13.0096873219
  C        12.9230715507       13.9535527100       11.3509153526
  H        16.7470490187       15.0122815839       12.7373055299
  H        16.1417745188       14.2349869551       14.1933415764
  C        17.7626454711       13.2132879530       13.1353921059
  H        14.3458306491       12.5630918572       14.8401275512
  C        14.0641607298        9.6959368891       15.4169362004
  H        14.2704767905        9.8675421260        1.2588734645
  H        14.1403124991       11.6194162985        1.3668604894
  C        12.4949574401       10.6688454924        0.4319421557
  C        19.2005390497       16.1085750992       -0.1590233499
  H        13.2226674763       13.5514152996       10.3908802981
  H        12.5541705917       13.1173021489       11.8411432459
  C        11.8144659391       15.0565409346       11.2725086716
  H        18.2240058656       13.0998243843       12.1269906497
  H        17.5551134514       12.1589757685       13.4685623684
  C        18.8717968278       13.5871268927       14.0935784969
  C        14.0464186243        8.2869797508       15.5798582432
  C        13.8401331927       10.4343961576       16.7044184771
  H        11.8283789881        9.8466629797        0.6003398465
  H        11.8133164519       11.4992137118        0.5619760481
  C        12.8326461948       10.7853034040       -1.0136465035
  H        19.0298675881       17.1463578809       -0.1923235508
  C        19.5256248334       15.6223480762       -1.4103550404
  H        12.3437393101       15.9214675920       10.8096123632
  H        11.5846323889       15.2770896573       12.3095937603
  C        10.7217303427       14.7190989471       10.2540567602
  H        18.4595071425       13.8205076044       15.0701760999
  H        19.4182587386       12.6978101725       14.2455694970
  C        19.6904861552       14.8004126255       13.5962538508
  N        14.1672584104        7.3860620687       14.5469650502
  C        13.9442538814        7.6053869592       16.7872875002
  C        13.7453913716        9.7803219709       17.9759362385
  H        13.8054485048       11.4588483580       16.7065866029
  H        12.1201210447       11.2968212742       -1.6256045841
  H        13.0847714015        9.8248306273       -1.3414313044
  H        13.7101908848       11.3642337939       -1.3468866590
  S        19.6629076061       14.0202490348       -1.9059544619
  C        19.7252459847       16.6654287530       -2.4785661358
  H        10.6698539292       15.3826369314        9.4354466232
  H        10.9233267602       13.7137109774        9.8990179281
  C         9.4836512872       14.7384432690       11.0176524298
  H        19.1182396973       15.6453602028       13.3616309392
  H        20.2519617990       14.4387850546       12.7727309545
  C        20.6342070610       15.2324366878       14.6799296839
  S        14.0002625274        5.8823561638       15.1681893670
  N        13.8619436633        6.2334239021       16.6926058537
  C        13.5892427468        8.2740548494       18.0032691919
  H        13.7187934798       10.3605878985       18.8562744090
  C        20.0517076844       14.7076829978       -3.5214030042
  N        20.0663322769       16.0478265626       -3.6558160356
  O        19.6811660708       17.9120620301       -2.2690227749
  H         9.4653389387       13.9313701505       11.7518640083
  H         9.4422931892       15.6926139475       11.5128558591
  C         8.1645594926       14.6096469405       10.2943383866
  H        20.0337851508       15.8554264790       15.3952635221
  H        21.1710605083       14.3869566807       15.2104052516
  C        21.7349571999       16.0860781503       14.0167944729
  C        13.2277440108        7.4989414190       19.1423485962
  S        20.5543243824       13.6824741106       -4.9486814669
  C        20.2191901768       16.7923875253       -4.8792028670
  H         7.3540622631       14.7405736961       10.9099716972
  H         8.1533098241       15.3636000350        9.5557001873
  C         7.9007400744       13.3651166556        9.5628278568
  H        21.6872707539       15.9528890413       12.9635634003
  H        22.7026982685       15.7892318099       14.4596531104
  C        21.7249588839       17.5483330309       14.4532139807
  H        13.2164334931        6.3720657195       18.9810625326
  C        12.7204399715        7.8653949723       20.3944768523
  H        20.9917424936       16.3544894562       -5.5249247011
  H        20.4028712162       17.8834642273       -4.6106878881
  C        18.8595420459       16.7297325439       -5.6803472306
  H         7.8767870604       12.5846084716       10.2564774955
  H         8.8025534524       13.2922406564        8.8832691239
  C         6.5152846542       13.4689739786        8.8922974031
  H        22.3054017804       18.0446838234       13.6707593356
  H        20.7489834901       18.0638155234       14.4535384818
  C        22.4014841760       17.7155905930       15.7495054296
  S        12.2318678404        9.4180207108       20.9377654652
  C        12.5612526543        6.8345403986       21.4130278174
  H        18.1414218892       17.4453174527       -5.2928650742
  H        18.4176078144       15.7382259700       -5.6425734778
  H        19.1206796788       16.9877708604       -6.7019315372
  H         6.6979239746       13.3375612358        7.8178256316
  H         5.9601609703       12.6019181276        9.1908476122
  H         5.8294093755       14.2922278587        9.2549339104
  H        21.9070606477       18.5747428875       16.1836799345
  H        22.2382040176       16.8104334988       16.3253886750
  H        23.5144622662       17.8434810377       15.7292098427
  C        11.8547386280        8.6571705136       22.4639870443
  N        11.9189442444        7.3307246066       22.5210728300
  O        12.8862933049        5.6356662478       21.2655562131
  S        10.8323645908        9.4244635889       23.7064847214
  C        11.7510479926        6.4733196428       23.6886294841
  H        11.8140538432        5.3866539417       23.5329829239
  H        10.8420096688        6.5780103803       24.2528774132
  C        12.8289157177        6.8263321223       24.7393502503
  H        12.8343223629        6.1955737559       25.6163745734
  H        12.5276590176        7.8087075443       25.1413018346
  H        13.8088917382        6.7961583353       24.3209777147
