352
 i =     6700, time =     6700.000, E =        27.2198523657
  H        11.6585052174        7.6380128152       32.0830902499
  C        11.4389017944        6.6173824527       32.1420629011
  H        12.3507506777        6.0372653266       31.9512221648
  C        10.4278040919        6.4360712519       31.0128756647
  C        10.8686795431        6.1750093957       33.4798765327
  C        11.0891879374        6.1399871648       29.6671036226
  H         9.6402711437        5.6585368423       31.1325277279
  H         9.9460077017        7.3645851937       30.8895489998
  H        10.0483900091        6.8859502140       33.6457807823
  H        10.4401843877        5.1302850192       33.4500325501
  H        11.6071265957        6.2090534920       34.2919853667
  C         9.9835549592        5.7912561311       28.6391317759
  H        11.7177357425        5.2830650617       29.8320584772
  H        11.7909522548        6.9108831060       29.3993799870
  C        10.5870678972        5.4759405726       27.2933913435
  H         9.4007687409        4.8911717382       28.8204895451
  H         9.2424999505        6.6579654256       28.6320722064
  C         9.6147950278        5.0238088899       26.2685377985
  H        11.4148536848        4.7359860220       27.4201167079
  H        11.2501947009        6.3286130522       27.0150017537
  C         8.4184817616        5.9737742397       26.1086434384
  H        10.0577140830        4.8834958943       25.3323711781
  H         9.3150157007        4.0447527482       26.6031417237
  C         7.2832108776        5.3063106142       25.3262027915
  H         8.0906623189        6.3582806476       27.0487408511
  H         8.7395279331        6.7949118574       25.4114142437
  C         6.8964811595        3.9870265915       26.0399418929
  C         7.6589304368        4.5677344937       24.1034598703
  C         5.9451937053        6.0279575014       25.1282024324
  C         7.1281339557        2.8302896840       25.2347511923
  C         6.3884086781        3.7290639090       27.3107176586
  C         7.6392514398        3.1962295395       24.0242179119
  C         8.1967699072        5.1791824901       23.0838533072
  H         6.0219069089        6.8278825089       24.4393028378
  H         5.7560361766        6.6165086685       26.0715899071
  C         4.7155947772        5.2990715389       24.5145097904
  S         6.7647136000        1.4159478303       26.1681604250
  C         6.3397488594        2.3772316328       27.5061726263
  H         6.2051270814        4.4049844948       28.0862905267
  C         8.1089015088        2.5098933672       22.8814443615
  H         8.1647191176        6.2537307674       23.1129055290
  C         8.6635341695        4.5927585851       21.9738577927
  H         5.0218641397        5.1063309556       23.4913350097
  H         4.4251635717        4.2806459208       25.0234684755
  C         3.4770212161        6.1450894902       24.4539094154
  C         5.9420993955        1.7523891563       28.7894298273
  C         8.6638352593        3.2461923384       21.8044540039
  H         8.0442470936        1.4684754857       22.8105364278
  C         9.1136387069        4.9516139663       20.7104322504
  H         2.6913203976        5.8229070158       23.8711604097
  H         3.7831446938        7.1045577261       24.1448504309
  C         2.9162699232        6.4156657770       25.8768896071
  C         6.0481545131        0.3773845855       29.1077994778
  C         5.4902605988        2.6244039609       29.9699043069
  C         9.1069340106        2.5105974588       20.5879820015
  C         9.3141287812        3.8473139462       19.8542486705
  S         9.4356596579        6.5015702549       19.9665095539
  H         2.2332954939        7.2960910834       25.7305731659
  H         3.6860547479        6.7486266784       26.6028397039
  C         2.0451307524        5.2412397312       26.3873177580
  N         6.4030951823       -0.6746695099       28.2271917509
  C         5.7378389154       -0.1369224752       30.3481995181
  C         5.1569363999        2.0878907062       31.2081957746
  H         5.2707082576        3.6944381514       29.8092508778
  C         8.0055931098        1.6661027906       20.0474220098
  C        10.3905756447        1.6953936188       20.9050599114
  C         9.7317722154        4.3046826821       18.6185428048
  C         9.9179521439        5.6347504647       18.5292636588
  H         1.2416488904        4.8819194029       25.7590379943
  H         2.7295700897        4.4343059803       26.5147476327
  C         1.3847307746        5.3889297095       27.8400155655
  S         6.3817544308       -2.1372998093       28.9212140840
  N         6.0042909023       -1.5419254502       30.4578432693
  C         5.2611811677        0.6365129193       31.4449146624
  H         4.9173117729        2.7053951199       31.9520395538
  H         7.6592909250        0.8976508388       20.6974166747
  H         8.3435832873        1.0415919151       19.1879671405
  C         6.7998490274        2.4603902764       19.5310847139
  H        10.7334978864        1.3101175608       19.9068151707
  H        10.0376114622        0.9040131327       21.5496555671
  C        11.4492388675        2.5596150754       21.5684947632
  H         9.9061214582        3.6116249080       17.8390110171
  C        10.3533911881        6.4023283683       17.2567667334
  H         0.7168630156        4.5105118677       27.9579865167
  H         0.8150279426        6.3075374676       27.9489546083
  C         2.3867093792        5.5147316926       28.9067119653
  C         5.1430949973        0.0523010829       32.7434639511
  H         7.0314546375        3.0812367421       18.6873814304
  H         6.2746066381        3.0550461323       20.3677313821
  C         5.8210455620        1.5263450010       18.9445473017
  H        10.9794746782        3.0051800018       22.4150465992
  H        11.7246169747        3.3339053836       20.8460576155
  C        12.6925010104        1.8084324549       21.8644355807
  C        10.3675921731        7.7766254630       17.0701435282
  C        10.6158990727        5.6004048518       15.9978679432
  H         2.9535943309        4.6078430516       28.8821895036
  H         3.0204237949        6.3286022834       28.7416080610
  C         1.7897426602        5.8908493479       30.2737126991
  H         5.2110753761       -0.9902875728       32.6864511584
  C         4.7694004431        0.5584882955       33.9704698083
  H         5.4634631064        0.8864129930       19.7125926062
  H         6.1652968789        0.8083269415       18.2635883843
  C         4.6243275659        2.2526882869       18.3893716976
  H        12.8605053482        1.9092926946       22.9019457824
  H        12.5199503881        0.7713585930       21.8037211235
  C        13.9439943287        2.2273834170       21.0788320110
  N         9.8998816538        8.6722481010       18.0544502041
  C        10.6001420203        8.4668776303       15.9022741640
  C        10.7442260808        6.2469468638       14.7787459227
  H        10.4128063228        4.5333945237       16.1199057294
  H         1.2610569412        4.9650149936       30.7170196805
  H         2.6166742099        6.1322585620       30.8765390529
  H         1.1637647010        6.7161490105       30.1224669880
  S         4.2703463740        2.1275699865       34.4314821632
  C         4.7489007574       -0.4682908543       35.0604276286
  H         4.4705655195        3.1917766388       19.0259726634
  H         4.7635165587        2.6154320319       17.3467646974
  C         3.2097754897        1.5147094165       18.4746468818
  H        13.8880271437        3.2994801202       20.8138013790
  H        13.8790650327        1.6768178477       20.2013368366
  C        15.3247220125        1.9302350395       21.7863182058
  S        10.1519340482       10.2267424230       17.6511145321
  N        10.5328337332        9.8600895989       16.0790839373
  C        10.8560034445        7.7835708702       14.7037813909
  H        10.7076790823        5.5949183600       13.8675580293
  C         4.2130635476        1.4795505585       36.0532241442
  N         4.3433897275        0.1293821053       36.1994378919
  O         5.0306575129       -1.6458322052       34.8922782094
  H         2.4880723478        2.3185236500       18.3495308019
  H         3.0770702186        1.0412945985       19.4336841819
  C         2.8886791076        0.5495109979       17.4078024655
  H        15.4539478932        0.8723526486       21.7511473640
  H        16.0518115650        2.2905988691       21.1912395149
  C        15.5376758944        2.6856533835       22.9892683058
  C        11.1883306204        8.5289211494       13.5353872379
  S         3.7191115261        2.3630004363       37.5038142801
  C         4.1794872929       -0.5120418226       37.5604797954
  H         1.8345965317        0.6527422695       16.9836593042
  H         3.5923774985        0.6703269043       16.6157453863
  C         3.2448504167       -0.9093360441       17.8008871466
  H        14.7273399092        2.6086877540       23.6830192876
  H        15.7943163509        3.6713941788       22.7849856972
  C        16.6436553443        2.1073878931       23.7037227016
  H        10.8210659840        9.4776550117       13.4013416970
  C        11.6687956584        8.0558099044       12.3008597064
  H         3.2663227288       -0.0948165933       38.0687253088
  H         3.8638171534       -1.5152563847       37.6138468596
  C         5.5202959312       -0.3923716485       38.2893581718
  H         3.0916685364       -1.1145677188       18.8283993926
  H         4.3152907378       -1.0357376953       17.6395110820
  C         2.4035175985       -1.9119595832       16.9614334513
  H        16.7363386825        2.5082092623       24.7772637038
  H        16.5283573563        1.0327958099       23.9071668803
  C        17.9960501439        2.1678185328       22.9556920390
  S        12.4862280441        6.5163635488       12.0257361213
  C        11.7108699421        9.0234313809       11.1922396351
  H         5.8369289837        0.5854405352       38.2234544511
  H         5.4887955172       -0.7049227926       39.3923659539
  H         6.2217157773       -1.0937291923       37.7514886468
  H         1.3097566777       -1.8608367098       17.1809928430
  H         2.7627020968       -2.9911780658       16.9565939776
  H         2.3992681907       -1.5991918263       15.9027583225
  H        18.6761795274        2.1211504101       23.7375934518
  H        18.1024643496        3.1144580642       22.5117115246
  H        18.0637712082        1.3829084729       22.2282151947
  C        12.6600960572        7.1656925666       10.3778988572
  N        12.3397436303        8.4257466191       10.1180371365
  O        11.2604845233       10.1685559190       11.2107990270
  S        13.5327268878        6.2869361200        9.0887139785
  C        12.3462369833        9.0699520009        8.8184726279
  H        12.2141916947       10.1514860103        9.0278570475
  H        13.3006383218        8.8208486297        8.3999973087
  C        11.1621831472        8.5404352169        7.9260443026
  H        10.3154271339        8.9781009461        8.3685123590
  H        11.4845828003        8.8377003395        6.9289736801
  H        11.0626910783        7.3897503196        8.0011033383
  H        20.7830995620       11.2128649641        3.6362439341
  C        21.3291410100       10.2679862986        3.4881508368
  H        20.6819916391        9.3980124323        3.3362320037
  C        22.1999458835       10.1597713695        4.7238078082
  C        22.2398851294       10.4988388282        2.2434729010
  C        21.2352318956       10.2634899053        5.9503874522
  H        22.6783348407        9.1654549014        4.7455529359
  H        22.9887068670       10.9672900203        4.7612738422
  H        21.7076203677       10.9236679231        1.3825603997
  H        22.7431832327        9.5764290778        1.9666301846
  H        22.9992503982       11.1782743788        2.4910528002
  C        20.9727777737        8.9955599682        6.7399094389
  H        21.6637884601       11.0896151609        6.5724058416
  H        20.2414348394       10.6538587513        5.7379514595
  C        20.3510528518        9.3914305830        8.0640784590
  H        21.8804081894        8.4785261876        6.9226511271
  H        20.2731850991        8.3759113376        6.2063292409
  C        18.9858018797       10.1798851362        8.0218412195
  H        20.9397568072        9.9178904332        8.7511679466
  H        20.2927257914        8.3126797509        8.5086927048
  C        17.9063446898        9.4450882401        7.2356701379
  H        18.5427706111       10.2662920173        8.9671662210
  H        19.1079671375       11.2098248262        7.8102828660
  C        16.6178673350       10.3380224768        7.0339869595
  H        17.4573659336        8.5072024028        7.7381740859
  H        18.3529604731        9.3088750213        6.2056696656
  C        17.0103245032       11.6929820344        6.4037830085
  C        16.2144967972       11.0759026733        8.2688733762
  C        15.5011737755        9.5954844080        6.1936088941
  C        16.8962281849       12.7507164761        7.2479168531
  C        17.6076588079       12.0690620343        5.1677007470
  C        16.2825034787       12.3883557676        8.3767480821
  C        15.6936492022       10.4130247471        9.3948635793
  H        15.9137517962        9.2074169609        5.1817101459
  H        15.2715764777        8.6987766847        6.7928527631
  C        14.2659833083       10.5853690134        5.9506374471
  S        17.3313004748       14.2311330783        6.5549363813
  C        17.7783216587       13.4097158313        5.0656797211
  H        17.7492621082       11.3406116882        4.4362944662
  C        15.8586197214       13.0761534361        9.5441029807
  H        15.6931613796        9.3259815058        9.3042310433
  C        15.3701128535       11.0910309970       10.5835433513
  H        14.4875248882       11.6490880273        5.7965828668
  H        13.6783438444       10.6514170837        6.8691134586
  C        13.2158224703       10.1331981115        4.9099581037
  C        18.1725517943       14.1221814356        3.8416693995
  C        15.3978379078       12.4534414377       10.6441485265
  H        15.8692413867       14.1258125764        9.6622935777
  C        15.0167633408       10.7034221750       11.8402611414
  H        12.4218695341       10.8834270559        4.9260793518
  H        12.8287461347        9.1612638537        5.1843320169
  C        13.7790597985        9.9987954343        3.4562088817
  C        18.0986013704       15.5564396349        3.7029127894
  C        18.6264684816       13.3960612689        2.6381431522
  C        15.0942402761       13.2121311072       11.8982709418
  C        14.8209948678       11.8271593252       12.6467511312
  S        14.7564088999        9.2304424256       12.7136716332
  H        14.2180586159        8.9841653040        3.3540518004
  H        14.6321155633       10.6712327986        3.2343375147
  C        12.7798543450       10.0998545333        2.3237566629
  N        17.8111495880       16.5345092154        4.6712926426
  C        18.3411409792       16.1753300536        2.4142961392
  C        18.9555270942       13.9776646564        1.4050547255
  H        18.7419453525       12.2967963702        2.7187816461
  C        13.7776985603       14.0573588981       11.7580092989
  C        16.3017497795       13.9641237641       12.4648581754
  C        14.4714934744       11.4479627766       13.9694787811
  C        14.3351435370       10.0781119383       14.1649214425
  H        11.8934326200        9.4513143313        2.4297185182
  H        12.4419456680       11.1169329058        2.4039910387
  C        13.3795612512        9.8880719897        0.9569574776
  S        17.8452446136       18.0504326366        4.0139240927
  N        18.0766530311       17.5435411233        2.4242067542
  C        18.6906369181       15.4418036424        1.2381601978
  H        19.3737407037       13.3805418962        0.6244584086
  H        14.0094949818       14.7940349658       10.9909761505
  H        13.7289960807       14.5632726658       12.7169572214
  C        12.5177672561       13.2664982256       11.4894177214
  H        16.5673564829       14.7571452813       11.7611780511
  H        16.0087983967       14.4605238937       13.3622234507
  C        17.4314765081       13.0282826067       12.8275289581
  H        14.3198635236       12.2080299610       14.6755924019
  C        14.0677710490        9.4285407541       15.4926383583
  H        14.0322479074        9.0285896553        1.0851372845
  H        14.0054414379       10.6995783605        0.5995105125
  C        12.2805127594        9.5756223835       -0.1063300327
  C        18.9060407390       16.1323144280       -0.0118385777
  H        12.6265717937       12.5990579170       10.5582797782
  H        12.1837935200       12.6423946137       12.3692594123
  C        11.3257468709       14.2973061080       11.1781583699
  H        17.8473472608       12.5545297024       11.9230536811
  H        17.1593056932       12.3216537391       13.5845511765
  C        18.6269163161       13.8753153778       13.4390480647
  C        14.0735367094        8.0403099568       15.7010694653
  C        13.8560722944       10.2904732364       16.7195317519
  H        12.2720753557        8.5090242211       -0.0899894817
  H        11.2675957570        9.9165149678        0.1383053644
  C        12.7121835536        9.9490844883       -1.4973699728
  H        18.8218382655       17.1454003715        0.0592493081
  C        19.1662230245       15.7501015757       -1.3453037564
  H        11.6893150577       15.1395967425       10.6124018811
  H        11.0004678802       14.7297201466       12.1365010752
  C        10.0345430310       13.6560609316       10.7673663814
  H        19.2105267011       14.2213841059       12.6056718985
  H        18.2616683925       14.7079555136       14.0374261233
  C        19.6674057674       13.0813374846       14.2242020984
  N        14.3959957713        7.1283248465       14.7141852203
  C        13.7501233648        7.4865945090       16.9345850999
  C        13.5108950909        9.7243905474       17.9448477101
  H        13.9296104932       11.3529002660       16.5778906816
  H        12.9031367686       11.0089718689       -1.5677409878
  H        12.0755138720        9.4698618782       -2.2550038136
  H        13.6300487577        9.3748689432       -1.6828260985
  S        19.4828920446       14.1576734608       -1.8858125534
  C        19.2061435674       16.7525087961       -2.4948448661
  H        10.0548424994       12.7059820216       11.2707802317
  H         9.1803329956       14.1266541568       11.2732812097
  C         9.7974265809       13.5596102389        9.2675507115
  H        20.0625489497       12.3234137775       13.5773975821
  H        19.3245315693       12.5631025166       15.1073323578
  C        20.8945107350       13.8533960647       14.6156048643
  S        14.4080336209        5.6888530129       15.3980230429
  N        13.9470010296        6.0885451466       16.9306099243
  C        13.4240513468        8.2683505875       18.0627651260
  H        13.3688687059       10.3985478146       18.7474113108
  C        19.7298016174       14.7941799301       -3.5413698135
  N        19.4941410526       16.1504736631       -3.6373129751
  O        18.9345310528       17.9788086922       -2.3131360764
  H        10.1723179022       14.4963805579        8.8445307678
  H        10.5173702906       12.8271990706        8.8258992968
  C         8.2862411881       13.2044143624        8.9211038017
  H        21.4421840946       13.3378331929       15.4113187354
  H        21.5781983621       13.9305226459       13.7523154135
  C        20.6904855599       15.2917832043       15.1863646438
  C        12.9942870760        7.5808632768       19.2296795856
  S        20.2335801644       13.9473180501       -4.9422013326
  C        19.5278507063       16.9086513457       -4.9252138233
  H         8.1075847543       13.2726520809        7.8611014138
  H         8.1011749637       12.1456925000        9.1908333279
  C         7.1793043940       14.0521061437        9.6017653370
  H        20.5609935047       15.0190792999       16.1889877174
  H        19.6907224796       15.7839721550       15.0091834125
  C        21.8102599866       16.3131498541       14.8858289404
  H        13.0129592631        6.5076536102       19.2642324837
  C        12.5992304960        8.0140931589       20.4847528010
  H        20.2384793277       16.5573109384       -5.5988213345
  H        19.9058655428       17.9092075076       -4.7473782516
  C        18.0485384971       17.0695978115       -5.3873034296
  H         6.6510576597       14.7128786837        8.9276828698
  H         7.5582543599       14.7051687943       10.3477381720
  C         6.1919856887       13.2795884776       10.4538740907
  H        22.0232080312       17.0121482829       15.7264063990
  H        22.7217275152       15.8005182346       14.7483978030
  C        21.5357766688       17.2718184421       13.6818792870
  S        11.9351974678        9.5584623842       20.8430877557
  C        12.4760082076        7.0195025374       21.5547693606
  H        17.3785211773       16.8887528122       -4.5773600733
  H        17.8267052099       16.3924000464       -6.1920965694
  H        17.9401307659       18.0061153587       -5.8758897308
  H         6.6269456031       12.8000875489       11.3351791497
  H         5.3591551571       13.8871509669       10.7631087253
  H         5.6209274330       12.5844585570        9.8044447728
  H        22.4676849630       17.8940712051       13.6469876758
  H        21.2363072541       16.7928074402       12.7129555657
  H        20.7888204886       17.9792454298       13.9161512978
  C        11.7433352434        8.9146303476       22.5186572387
  N        11.9316255758        7.5780935187       22.6488883900
  O        12.6946343576        5.8535563044       21.3955927815
  S        10.9758697667        9.7655589574       23.8827313294
  C        11.7407262346        6.9183863056       23.8847196457
  H        11.5030376424        5.9054011453       23.5654470016
  H        10.9123553157        7.2727898763       24.5404919341
  C        12.8919424809        6.8950375462       24.8155871550
  H        12.9131405692        5.9092801956       25.2587099610
  H        12.7162999125        7.6104947913       25.6174343608
  H        13.8268939201        7.1389691277       24.2706098137
