352
 i =    99600, time =    99600.000, E =        25.4777167794
  H         9.9413994220        4.9258115171       32.2219830550
  C        10.5124701046        5.8011276846       32.5377659011
  H         9.7703732855        6.4000704999       33.1516866145
  C        11.0197114633        6.5707714788       31.3447537373
  C        11.5803088146        5.4088466355       33.5821280698
  C        11.6489150251        5.7314338503       30.1907472004
  H        10.1439809675        7.1252387388       30.9975378255
  H        11.7335871376        7.4282352850       31.4486651421
  H        11.3913250419        4.4572517305       34.0418316700
  H        12.5648732116        5.1595083608       33.1053265772
  H        11.8675093839        6.2548372435       34.2808999986
  C        10.7596654712        5.0494526627       29.0974087134
  H        12.2100952115        4.9094797683       30.5865587114
  H        12.3594969560        6.3185704485       29.6818391068
  C        10.6437668787        5.9373788378       27.7857177899
  H        11.1018550302        4.0164640796       28.9303131449
  H         9.7147762343        4.8108796516       29.5910623967
  C         9.6920589700        5.2043371714       26.7853051222
  H        11.6314835037        6.1175114858       27.3291818145
  H        10.2310043868        6.8835536034       28.0983561339
  C         8.4534308950        6.0389716143       26.2618146413
  H        10.2170017108        4.8479618419       25.8814563797
  H         9.2316713092        4.3169670799       27.2353752675
  C         7.3072554646        5.2371802021       25.5634878893
  H         8.1725280354        6.6219721058       27.1737749605
  H         8.7750329858        6.9075861381       25.6547232132
  C         6.8897977695        3.8583390615       26.1786201929
  C         7.7755188316        4.4953690923       24.3121799258
  C         6.1189910685        6.0960524738       25.1702610497
  C         7.1167889999        2.7696985845       25.3962311554
  C         6.5015310613        3.5058007481       27.5031661847
  C         7.7058341435        3.1312432687       24.2173987797
  C         8.4052288589        5.1343983393       23.2606099668
  H         5.5202595738        5.4116206506       24.4887623017
  H         6.4047845879        6.9207975884       24.5496818004
  C         5.1226981579        6.5464392589       26.2049766531
  S         6.7242064325        1.2707079904       26.1655238113
  C         6.3824842199        2.1822757334       27.6822616222
  H         6.5191580504        4.2781872082       28.2509134807
  C         8.0926420325        2.4592461471       23.0660217871
  H         8.6195065050        6.1778537669       23.2247894804
  C         8.8172938118        4.4568739819       22.1324879746
  H         5.2494796402        5.9389744341       27.1039964011
  H         5.3380950341        7.5161329055       26.6013626327
  C         3.6975430307        6.4901789193       25.8244681751
  C         6.0680738079        1.4749873507       28.9478747595
  C         8.6085163424        3.1270228600       21.9767875562
  H         7.9719256603        1.4054550928       23.1384857516
  C         9.1901954040        4.8550118221       20.8878920743
  H         3.6293187197        5.4802580376       25.4148522890
  H         3.2789184614        7.1051616899       25.0465449955
  C         2.7363201693        6.5808904224       27.0468727208
  C         6.1381160654        0.0879674039       29.1756411855
  C         5.6109179682        2.2840280455       30.1460006894
  C         9.0389385431        2.4247280593       20.6944316154
  C         9.5138013525        3.7603087705       20.1045307836
  S         9.6477987791        6.3528358526       20.1379277821
  H         1.8369134716        7.1600761005       26.8209996792
  H         3.1983558164        7.2069500366       27.8673247466
  C         2.3450663641        5.1321058111       27.3895130332
  N         6.5932057031       -0.8806462601       28.2423420393
  C         5.7801693617       -0.4540532812       30.4346942693
  C         5.3613403761        1.7067717084       31.3916721716
  H         5.4647191758        3.3695917517       30.0600370547
  C         7.9361652760        1.6408009613       19.9565134116
  C        10.3513990679        1.6461979961       20.9619364301
  C        10.0115554157        4.2078917840       18.8367141220
  C         9.9475197728        5.5743623176       18.7337519389
  H         1.9360489083        4.5124091051       26.5416290163
  H         3.2638220696        4.6104080211       27.6398040331
  C         1.4554553644        5.0328562570       28.6875524870
  S         6.5914905353       -2.2957153992       29.0249881922
  N         5.9774663966       -1.8396269727       30.4223298293
  C         5.3847885625        0.2696066774       31.6185995942
  H         5.0308458808        2.4196127639       32.1530151363
  H         7.6581502046        0.9139973334       20.7289484562
  H         8.4766304174        1.1254847738       19.1327251119
  C         6.7870822606        2.6252500215       19.5538719770
  H        10.5761641492        1.0888619302       19.9940052451
  H        10.2691928711        0.9250456481       21.7248145252
  C        11.5927566836        2.5072177970       21.2162937480
  H        10.2000287063        3.4018409348       18.1584400969
  C        10.2051006580        6.3600866672       17.5137838736
  H         1.2873155698        3.9979464221       28.9702153750
  H         0.5511488496        5.3771229035       28.3119437507
  C         1.7798804563        5.8747319405       29.9185442621
  C         5.0280564890       -0.4677221150       32.7930467889
  H         7.1427345057        3.3405102607       18.7498943241
  H         6.4957696187        3.3162945597       20.3301410706
  C         5.5961139350        1.8619408721       19.0025531480
  H        11.2735441550        3.2842749464       21.9347984607
  H        11.8978194597        2.8554305859       20.1989881845
  C        12.6955624623        1.6012935435       21.8610518480
  C        10.2652770570        7.7779917434       17.4386502906
  C        10.3853282138        5.5688231244       16.2888577632
  H         1.8701203821        6.9409444539       29.6820238559
  H         0.9904863604        5.8715868460       30.6933660385
  C         2.9898732915        5.5018076720       30.6802748530
  H         5.2394552894       -1.5719377171       32.7724345558
  C         4.8404055862        0.0041573242       34.0795140661
  H         5.2090779335        1.1838717294       19.6735960180
  H         5.9321740068        1.2612499616       18.2141548334
  C         4.4213112945        2.8523171421       18.5620050531
  H        12.4473291378        0.8679699418       22.6583611880
  H        13.0337694057        0.8789886740       21.1900602904
  C        13.8246035545        2.6000877428       22.2727951154
  N        10.1861066595        8.7162104784       18.5043123943
  C        10.4757681084        8.4078915386       16.2530756803
  C        10.6375174588        6.2680179603       15.0863733095
  H        10.3021037648        4.4853222264       16.2678920337
  H         2.8360491606        4.5261240494       31.1813749743
  H         3.8530793396        5.4735835001       29.9347021340
  H         3.1852082512        6.2274959209       31.4675011885
  S         4.5050426403        1.6743543287       34.5561913172
  C         4.8488778803       -0.9587790368       35.2517361005
  H         4.1067933334        3.4066380665       19.4385995016
  H         4.9248445928        3.5112905151       17.8084081706
  C         3.4442783895        2.0924347405       17.6532605342
  H        13.3375993596        3.1568247758       23.1014519641
  H        14.0192101648        3.2809050495       21.5143942231
  C        15.0149929236        1.8989138057       22.7237993952
  S        10.1873969600       10.1919577831       17.8756708294
  N        10.5596542847        9.8065457357       16.3174903339
  C        10.6557017766        7.7694118101       15.0220081753
  H        10.6762483835        5.7350577491       14.1481249606
  C         4.2679961935        1.0199712329       36.1985999542
  N         4.3917592956       -0.2907787754       36.3382861452
  O         4.8940970287       -2.1492007970       35.0913702696
  H         3.9079754428        2.0119160779       16.6691448830
  H         2.6080003530        2.7624668507       17.4611526940
  C         2.8951600641        0.7197479930       18.1953940520
  H        14.8328791411        0.9955458079       23.3141227604
  H        15.6017525186        1.5875382857       21.8995807966
  C        15.7623374439        2.8171492651       23.6628235694
  C        10.9524653196        8.5162039996       13.8544759290
  S         3.7489288129        1.9215878610       37.6339869953
  C         4.2763489564       -1.0216852767       37.6400428963
  H         3.7476985898        0.0606513837       18.1461337687
  H         2.6640629028        0.9527648340       19.2138023983
  C         1.7250361755        0.2519613192       17.3588484205
  H        15.0403277091        3.0598554330       24.4237246235
  H        16.0707480840        3.7659955772       23.2301090571
  C        17.0376887710        2.1148566738       24.1600480562
  H        10.7338978361        9.6402624988       14.0412603404
  C        11.4865326021        8.1532308711       12.6582434874
  H         3.4262493807       -0.7520337606       38.2566453037
  H         3.9722929105       -1.9715881726       37.3930708339
  C         5.6034697363       -1.1704933506       38.3890499796
  H         0.9686706702        0.9770055631       17.3478151016
  H         1.2617632538       -0.6380781097       17.8307055788
  C         2.0126846705       -0.1962939511       15.9058649700
  H        17.4444397719        2.4774024735       25.1452251906
  H        16.8315076871        1.0626943873       24.4362393409
  C        18.0725812136        2.0963593648       23.0955495577
  S        11.9589263613        6.5588814280       12.1086366659
  C        11.7168006416        9.2530777599       11.6662604061
  H         5.4461099293       -1.9848625947       39.0721817075
  H         6.3839102234       -1.4198478181       37.6406170000
  H         5.8347599818       -0.2610675356       38.8893135623
  H         1.1506278170        0.0587661451       15.2843750973
  H         2.1988998989       -1.3090468642       15.9062935596
  H         2.8567816070        0.2889356832       15.3553818132
  H        18.9555628773        1.5623039616       23.4296140924
  H        18.4160048555        3.0905161974       22.7650664544
  H        17.6636609909        1.5462240095       22.2695578173
  C        12.1556997722        7.3989013486       10.5207924812
  N        12.1940318638        8.7391131487       10.4986144311
  O        11.4357497547       10.4433141440       11.8117195059
  S        12.7464430442        6.6367875043        9.0033798180
  C        12.4249304936        9.5741551435        9.3123591337
  H        12.6393644839       10.5650043920        9.7074609950
  H        13.1679239485        9.1060920996        8.6323483547
  C        11.1486698428        9.7369254001        8.4721314825
  H        10.3153433930       10.3062733795        8.8690684678
  H        11.3853812790       10.2312199313        7.5829997900
  H        10.8331509331        8.7485007068        8.1676423053
  H        20.8180960662       10.1865242442        3.6843283480
  C        21.7880315208        9.7483095009        3.8657504614
  H        21.4606570065        8.7040613654        4.1092111842
  C        22.6036665343       10.0990514670        5.1307155737
  C        22.6969357626        9.8704630440        2.5244834926
  C        21.7540341764       10.2443470755        6.4306202143
  H        23.3567286849        9.3632493377        5.2652873829
  H        23.0726740332       11.0357171193        4.8734972835
  H        22.0746665456       10.0278217906        1.6864649052
  H        23.3842608269        9.0243990549        2.3467568124
  H        23.4103789660       10.7504736310        2.7051024161
  C        20.8970935613        8.9506862028        6.8112910783
  H        22.4009970229       10.4901334355        7.2963122162
  H        21.1401739226       11.1095112440        6.3235281748
  C        20.1536990340        9.0413251891        8.1153036765
  H        21.6048479431        8.0737115641        6.9820591048
  H        20.1384420921        8.7618450387        6.0441779420
  C        19.0990852380       10.0927975005        8.0358773890
  H        20.8162935071        9.3704876004        8.9571073052
  H        19.7946018767        8.0798468598        8.4574118760
  C        17.8431005769        9.6345483807        7.3466848343
  H        18.9082327085       10.2914819711        9.0748462852
  H        19.5285230720       11.0250854343        7.6835516473
  C        16.6341816490       10.6107266505        7.2069702867
  H        17.5025759992        8.6359957204        7.5908862654
  H        18.1067508164        9.4583259520        6.2863998777
  C        17.0650287468       11.9754846185        6.5568367236
  C        16.2394947259       11.3395238605        8.4403695232
  C        15.4261439973        9.9412690840        6.5701177809
  C        16.6854782553       13.0713566932        7.3106119575
  C        17.6255212839       12.4118099546        5.3433055364
  C        16.3050700305       12.6460045298        8.5466903748
  C        15.7483969139       10.6953524820        9.5867586897
  H        15.7878362199        9.4310290488        5.6276346297
  H        15.0316829698        9.1197772431        7.2145415029
  C        14.2289148886       10.8838623505        6.3285638580
  S        17.0646331350       14.6316583364        6.5492725533
  C        17.7427004350       13.7753830927        5.2325561934
  H        17.9410468442       11.7402768117        4.5979980049
  C        15.9299021767       13.2334957706        9.7401043844
  H        15.6514713975        9.6299451125        9.5630950523
  C        15.4423820976       11.2920729170       10.7922418988
  H        14.5248359933       11.8818802094        6.1250846672
  H        13.7830309485       11.0723429535        7.3400416869
  C        13.2850615689       10.3359999149        5.2385965000
  C        18.2205919516       14.3915155161        4.0264197939
  C        15.5215048380       12.6038802569       10.8897883314
  H        15.8949173188       14.2935473461        9.7796636140
  C        15.0797569369       10.8799228057       12.0440638563
  H        12.2648264446       10.4625979254        5.6231607014
  H        13.4682802626        9.3074119830        5.2123757360
  C        13.5251490859       10.7648170478        3.7791132318
  C        18.2103200292       15.7930875391        3.8176996228
  C        18.7419268775       13.5428121150        2.9001831258
  C        15.1860412868       13.3613905757       12.1084743078
  C        14.8636969226       12.0333025540       12.8380942402
  S        14.8178075689        9.4484713857       12.9296921533
  H        14.5429610320       10.9270755468        3.6465452559
  H        12.9561501152       11.7312968602        3.5797692826
  C        13.0965058078        9.6634587147        2.7992974743
  N        18.1625960321       16.7474750844        4.8802735038
  C        18.4685665602       16.2470227820        2.5449004873
  C        18.9420221096       13.9888521879        1.5929565353
  H        18.8329449955       12.4800087341        3.1233919720
  C        14.0110708805       14.3128723885       11.9167618073
  C        16.3962134415       14.1290747672       12.6903128430
  C        14.4021155258       11.6198103810       14.1395995531
  C        14.3412304478       10.2715260734       14.3458740573
  H        13.7329751132        8.8299798371        2.9903323656
  H        11.9991738376        9.4880598214        2.9864061406
  C        13.2323744375       10.2438029261        1.4348055439
  S        18.1131631017       18.1823066705        4.1417086152
  N        18.2979042197       17.6372740299        2.5640602234
  C        18.7121815961       15.4396850636        1.3850851337
  H        19.1888016545       13.2810640945        0.7689687811
  H        14.3582371374       15.0426246391       11.1970863146
  H        13.7526009698       14.8833832134       12.7520319586
  C        12.7469400984       13.6680471341       11.3366699387
  H        16.8597736256       14.6045362329       11.8790796350
  H        16.1060599446       14.8933756764       13.3825807306
  C        17.5023358309       13.2741024254       13.3671479467
  H        14.2216138278       12.3686994662       14.8960678979
  C        13.9907989274        9.5363622218       15.5931698527
  H        14.2293071133        9.7906598782        1.0139068619
  H        13.3993465162       11.2847361326        1.4200273894
  C        12.1211891347        9.8815884734        0.4455414679
  C        18.6835888246       16.1761953490        0.1341621736
  H        13.0221555655       13.1977162967       10.4359327771
  H        12.3601539970       12.9408442886       12.0329411124
  C        11.6594439511       14.6792503727       10.9252839985
  H        17.9832254175       12.6523526669       12.6290836730
  H        17.1484445881       12.5658948373       14.1091292095
  C        18.6377000800       14.0365784924       13.9010168134
  C        14.0391144537        8.1080822223       15.7407871141
  C        13.6736363910       10.3385358987       16.8321316212
  H        12.2063576140        8.8021517420        0.5371093641
  H        11.1097782695       10.2396757352        0.7628834512
  C        12.5075367718       10.2603408082       -0.9376464919
  H        18.2397680014       17.1384755945        0.1638190910
  C        18.9998214128       15.8171810330       -1.1777006203
  H        12.1089224588       15.2742854052       10.1676645046
  H        11.3276334878       15.3183319337       11.7501330016
  C        10.4816745134       14.0546650402       10.2397840311
  H        18.9738545006       14.7958748281       13.1444811000
  H        18.2779709244       14.6086090274       14.7615829299
  C        19.9170366116       13.1544441286       14.0805611846
  N        14.0342480945        7.1939160079       14.6666426746
  C        13.7821712413        7.5316614496       16.9436598814
  C        13.4346596905        9.6780973976       18.0132684498
  H        13.7158419753       11.3831396938       16.7578502390
  H        12.7827494984       11.2859079259       -1.0882820402
  H        11.6486886314       10.2542948707       -1.6438203145
  H        13.3005381313        9.5272664986       -1.2188780759
  S        19.3410036472       14.2222152954       -1.7101517699
  C        19.1377953237       16.8011649952       -2.2375352588
  H        10.0174290630       14.8590140077        9.5560445993
  H        11.0326017820       13.3842598568        9.5294529189
  C         9.5069037247       13.2188036432       11.0085431569
  H        20.2267952678       12.7803723497       13.1291045365
  H        19.5689221413       12.2025804866       14.5480778249
  C        21.0561225832       13.8150808832       14.8271761824
  S        14.0703178797        5.6630531113       15.2893279866
  N        13.7870298050        6.1389010408       16.8191589822
  C        13.5113287140        8.2588129593       18.1499559199
  H        13.2577176803       10.3512217444       18.8477312524
  C        19.7567662633       14.8588453454       -3.3113217180
  N        19.5847411910       16.1925485530       -3.3492692834
  O        18.9829480243       17.9620589255       -2.0380094358
  H         9.7216158227       12.1625755111       10.7859675006
  H         9.6901680055       13.4462241893       12.0538422862
  C         8.0105836352       13.6093550221       10.7856122057
  H        20.6673167358       14.3830489435       15.7332526590
  H        21.8316644615       13.0743214365       15.2044290346
  C        21.7726153280       14.9540527267       14.0217047178
  C        13.1989130241        7.5135743690       19.3180020026
  S        20.1462361952       14.0853628220       -4.8049374527
  C        19.6376252932       16.8197847330       -4.6351843502
  H         7.3931514471       13.2294200116       11.6454682020
  H         7.8862289960       14.7012023559       10.6928319228
  C         7.5707977247       13.0506345030        9.4464527817
  H        21.4458720383       14.8672060705       12.9602741844
  H        22.8151847110       14.7178800921       13.8809655028
  C        21.3922343288       16.3852660039       14.4527835896
  H        13.1384311576        6.4572820252       19.1125780504
  C        12.8236133015        7.8119498144       20.5784563975
  H        20.4639951090       16.4574485636       -5.2877021461
  H        19.9489007964       17.8305381382       -4.3588823093
  C        18.3564701742       16.9814118829       -5.3867839592
  H         6.9634539956       12.1663410172        9.6710487842
  H         8.4181479654       12.7298118133        8.8172994579
  C         6.7176749493       14.0017890791        8.6900435611
  H        21.7631816781       16.9564725396       13.5592265843
  H        20.3624088332       16.6593704050       14.4182870074
  C        22.1709165670       16.8962357562       15.6742589875
  S        12.4585335508        9.3393701172       21.1335451290
  C        12.6856667282        6.6516282079       21.5215747568
  H        18.2324338453       16.1845555896       -6.0448591182
  H        18.2261846133       17.9179040619       -5.9597248913
  H        17.5644697869       17.0028187885       -4.6768635381
  H         5.7850977296       13.9296983098        9.1688989831
  H         7.1101816575       15.0124943776        8.7664453443
  H         6.5929705896       13.7243532057        7.6394010760
  H        21.6620222573       16.6514616924       16.6435942490
  H        23.1878239416       16.5343172872       15.6278614969
  H        22.2124794301       18.0246568540       15.6565992281
  C        12.1241389475        8.4541547666       22.6412203120
  N        12.2257821710        7.1151065516       22.6052503159
  O        12.9930855427        5.4705890779       21.1785945097
  S        11.5811357599        9.3995031019       24.1303372691
  C        11.9317683487        6.1993018927       23.7398128373
  H        11.7681329321        5.2243916845       23.3759694214
  H        11.0428631753        6.4746128161       24.2896347694
  C        13.1386697590        6.2060319521       24.6914633859
  H        13.4383340667        7.1581615625       25.0215576528
  H        13.9066058073        5.5192189508       24.3517408582
  H        12.7975631384        5.7455876154       25.5610887943
