352
 i =    75000, time =    75000.000, E =        25.0989142661
  H        12.4489579355        6.7589036404       32.3314873114
  C        11.8379284241        5.8399948471       32.3571452254
  H        12.5692098273        4.9998170988       32.5458509287
  C        11.1056684176        5.6294618854       30.9962145264
  C        10.8026034777        6.0692060238       33.4249661247
  C        11.9242371592        5.2979058185       29.7468655675
  H        10.4262525158        4.8322762241       31.1313023306
  H        10.4526757204        6.5018539366       30.7738111828
  H        10.6489270305        5.1607291111       33.9497028733
  H        11.0954354684        6.6990130180       34.2189581856
  H         9.8953983524        6.5469450125       33.0676784292
  C        11.1452374227        4.7731542654       28.5726296693
  H        12.7807909823        4.7175615840       30.1062360768
  H        12.3943717038        6.2486806928       29.5296880344
  C        10.2121027984        5.7688193821       27.8574063226
  H        11.9759253755        4.5869484576       27.7706713871
  H        10.7547044181        3.7534072499       28.7261882558
  C         9.1759622377        4.9938554894       27.0964564937
  H        10.7503594154        6.5398470060       27.3062956548
  H         9.6948492566        6.4172313636       28.6274827129
  C         8.4958923798        5.8274374837       26.0646291274
  H         9.6640309228        4.1283368835       26.6208342797
  H         8.4523616312        4.6297242235       27.8296737634
  C         7.3187770463        5.0671442755       25.3475678330
  H         8.1632226217        6.6980131245       26.5553771815
  H         9.2872963846        6.0903855078       25.3555559691
  C         6.8888373079        3.7482297444       25.9377705453
  C         7.7989462097        4.4142430052       24.1358801430
  C         6.0864894287        5.9611088785       25.0483776362
  C         7.2357541976        2.6725219879       25.1795451712
  C         6.2106894844        3.3404088395       27.1006168754
  C         7.7611188857        3.0588528977       23.9766527664
  C         8.2044884444        5.1221374555       22.9924750685
  H         5.4542658797        5.6798431099       24.1431577449
  H         6.4876079180        6.8958448989       24.6238473221
  C         5.1248094866        6.3137207012       26.1501603473
  S         6.8552634041        1.0956608814       25.9509082594
  C         6.1418968377        1.9924671518       27.2367741680
  H         5.9056451917        4.0841109785       27.7893214789
  C         8.1917914394        2.4862152574       22.8295036039
  H         8.3487622756        6.2271273762       22.9341973199
  C         8.6913177021        4.5318811112       21.8907334078
  H         5.6209634998        6.2415292296       27.0887425094
  H         4.8670205547        7.3671541939       26.0285811269
  C         3.8234459101        5.5245569306       26.1285999192
  C         5.6727868569        1.3955629088       28.5190871945
  C         8.6656211656        3.1821358690       21.7292270985
  H         8.2950622427        1.4745116597       22.6208845359
  C         9.0587385516        4.9320992590       20.6223587849
  H         3.9428010218        4.4635270174       26.1139138141
  H         3.3076892411        5.8871775858       25.1995151388
  C         3.0488486727        6.0166291976       27.3129362123
  C         5.7474366335       -0.0182804371       28.8314173266
  C         5.3729707743        2.2971892659       29.7043933338
  C         8.8973380629        2.4768197447       20.4946527099
  C         9.2075217016        3.8086891205       19.8213256715
  S         9.5346157882        6.3699774199       19.8832555261
  H         2.5818529302        6.9764689776       27.0666444198
  H         3.8072443143        6.2244807894       28.0725791473
  C         1.9379611956        5.1150378957       27.9029350314
  N         6.2847438166       -1.0159827203       27.9877567480
  C         5.5629054097       -0.4876575830       30.1488924831
  C         5.1725844301        1.7564763486       30.9886652760
  H         5.1703614594        3.3699199415       29.5460483721
  C         7.6598449578        1.8322196092       19.8878816266
  C        10.1413469398        1.5805994340       20.5779432451
  C         9.5890434070        4.1607992000       18.5071235957
  C         9.8540199865        5.5480440587       18.3558193604
  H         1.3100480345        4.6695014873       27.1139059016
  H         2.4161177507        4.2350340285       28.3314292663
  C         1.1328806941        5.8713748479       29.0073289226
  S         6.1997418226       -2.4583876243       28.8120618880
  N         5.7592110880       -1.8386340076       30.2683422420
  C         5.2368227723        0.2945992442       31.2602938661
  H         4.9070625868        2.3632117065       31.7713408204
  H         7.3194211042        1.1097689598       20.6919708041
  H         7.8815505052        1.3176734141       19.0260588498
  C         6.5024088066        2.7608956450       19.5217359596
  H        10.4807233704        1.2202667132       19.5839500626
  H        10.0790606073        0.7307336546       21.1894632110
  C        11.3667764610        2.1777554701       21.1274518740
  H         9.6011948222        3.4059610117       17.7534451680
  C        10.1659403898        6.2972715129       17.1098794389
  H         0.1548268928        6.1369359318       28.5068152383
  H         1.5719023071        6.8650073522       29.2116826952
  C         0.9904658021        5.0500684400       30.3318159366
  C         5.0701683225       -0.3699023574       32.5290194539
  H         6.7726321417        3.1437603067       18.5567156399
  H         6.2549967649        3.5360148859       20.2511128609
  C         5.1880732716        2.0147185914       19.3278456771
  H        11.2423606761        2.4879476784       22.1732288837
  H        11.7034712487        3.0580421168       20.5355945193
  C        12.6641375033        1.2948833849       21.0112577120
  C        10.2815207487        7.7107475991       17.0034038464
  C        10.4231680821        5.5253636645       15.8514823457
  H         0.2899562844        5.5694463186       31.0565723191
  H         0.5405445939        4.0994490909       30.2233555818
  C         2.3595592888        4.7533295637       30.9711956590
  H         5.1558974685       -1.4042750578       32.5418887112
  C         4.6996108623        0.0634643743       33.7700626519
  H         4.5898220157        2.6483100282       19.9764928448
  H         5.2305789821        1.0789179181       19.8444236932
  C         4.6090848391        1.8337678236       17.8744376238
  H        12.5062808328        0.5212929026       21.7972772344
  H        12.9250152164        0.8448986976       20.1191035902
  C        13.8331205873        2.2194149156       21.3795893157
  N         9.7160693988        8.5522580944       17.9811629870
  C        10.5550711750        8.3747889656       15.7933240083
  C        10.7248849200        6.2292500047       14.7141554367
  H        10.5073543626        4.4467944564       15.8257830174
  H         2.9582298678        5.6339984522       30.9130860595
  H         2.3026234761        4.6084099843       32.0275976137
  H         2.8936980226        3.8655560643       30.7029351276
  S         4.3684814250        1.6337029025       34.1549645388
  C         4.7790555929       -0.9438316906       34.8852105567
  H         4.5184698987        2.8351934386       17.3476148652
  H         5.3494527158        1.2112491314       17.3382214501
  C         3.3249831209        1.0669679329       17.9592987877
  H        13.5265762531        2.8769206489       22.1454377784
  H        14.1695759648        2.9191268960       20.5894604923
  C        15.0625802349        1.6164727997       22.0517097422
  S         9.9196107776       10.0968142181       17.4008848238
  N        10.4375408094        9.7577564197       15.8910050295
  C        10.7917357241        7.7190716874       14.6205433650
  H        10.9337462896        5.7245342613       13.8101367728
  C         4.1592576337        1.0351825251       35.7803397346
  N         4.2869351699       -0.2724620669       35.9542599385
  O         4.9939647761       -2.1410206563       34.7892800201
  H         2.8001116709        1.2723930249       17.0466201863
  H         2.7624288780        1.6341680310       18.7276533634
  C         3.4307571861       -0.4891215526       18.2740398085
  H        14.7067121593        0.8609978626       22.7750105291
  H        15.6652810509        1.1268362958       21.2947889125
  C        15.8952772034        2.5429386789       22.8614439654
  C        11.0637004448        8.5198295181       13.5092692498
  S         3.6490761751        2.0364592475       37.2161138608
  C         4.0723199499       -1.0137821937       37.2398425312
  H         4.1131677948       -0.8932423406       17.6526444619
  H         3.8056179156       -0.6395267850       19.2500625154
  C         2.1009842367       -1.1616222103       18.2349788302
  H        15.4458899452        2.8633928812       23.7544634146
  H        16.1580633102        3.4176806969       22.3101588040
  C        17.1379385441        1.8038666115       23.3073214129
  H        10.5651484231        9.4034151498       13.5172809825
  C        11.5511491670        8.2171280952       12.2429780162
  H         3.3196211255       -0.6316417592       37.9141500400
  H         3.7116136754       -2.0839103092       37.0871138655
  C         5.3552321765       -1.1467815667       38.0345463213
  H         1.2932417817       -0.5068200560       18.5704736274
  H         2.0885617836       -2.0030064048       18.9261632236
  C         1.8742325852       -1.5444431657       16.7824157244
  H        17.4484045041        2.1369564363       24.3252384834
  H        16.9844320989        0.7513252385       23.5833994311
  C        18.2841367356        1.9730499047       22.2046053816
  S        11.8595719120        6.6570712232       11.5964246358
  C        11.7002381380        9.2795912620       11.3315867322
  H         5.4919770544       -2.1978703055       38.2571030198
  H         6.2138239174       -0.9402265800       37.3661403796
  H         5.5336263587       -0.5333352869       38.8643041989
  H         2.2286621589       -0.7056400413       16.2105578809
  H         0.8861615417       -1.8304540652       16.5312898082
  H         2.4900884724       -2.4658561757       16.5303775209
  H        19.2956210350        1.8125702158       22.5777044433
  H        18.2076505806        2.9579373568       21.8650019822
  H        18.1642497715        1.2765284304       21.3380110827
  C        12.5030122648        7.4880741020       10.1553676622
  N        12.2371523098        8.8015941500       10.1487066082
  O        11.3518501729       10.4162075952       11.5084478235
  S        13.3226648678        6.5726902688        8.8448291964
  C        12.4454026426        9.6981860590        9.0697139470
  H        12.5724872068       10.7283589354        9.3996051288
  H        13.4638832237        9.5901662121        8.5160150092
  C        11.2861570972        9.4734285447        8.0470194617
  H        11.1111837747       10.4390857935        7.5932802337
  H        11.4913049222        8.7717721492        7.2050810276
  H        10.3614113777        9.1470165243        8.4861831387
  H        20.6972039868       11.2960245852        2.6875765057
  C        21.0610579027       10.2791842131        2.7083472252
  H        20.2744784741        9.6770448151        3.1242332872
  C        22.3315529212       10.2656017723        3.6070804494
  C        21.1917718546        9.9444936495        1.2098073873
  C        21.9017104249       10.5656271561        5.0501756605
  H        22.8775055709        9.3319508471        3.5168586203
  H        22.9297864534       11.0079618465        3.1336823083
  H        21.1907021406        8.8886864425        1.0482847206
  H        22.1465868038       10.3448757233        0.7233737698
  H        20.3954006566       10.4691371118        0.7438347632
  C        21.4796957419        9.2948151693        5.8076058404
  H        22.6782441982       11.1492924603        5.4854705236
  H        21.1130933037       11.1986174616        5.0090897362
  C        20.3084505163        9.4126216373        6.8844209578
  H        22.3251817131        8.7465001011        6.0567127996
  H        21.0559865150        8.6752046887        5.0291953226
  C        18.9028632240        9.5447406407        6.2647208942
  H        20.6178302571       10.2681248601        7.5086603635
  H        20.4005968929        8.6561168119        7.6977363459
  C        17.8299404227        9.8697247910        7.3067707649
  H        18.9053564272       10.2662083249        5.4340061394
  H        18.5139009406        8.6283153100        5.8880829997
  C        16.5768062831       10.7653796177        6.9279513296
  H        18.4602401726       10.3683229390        8.0124209210
  H        17.3824422983        8.8900250198        7.6401827080
  C        16.9743477773       12.1428065847        6.2717330675
  C        16.1454712552       11.5625589103        8.1614370638
  C        15.4698433493       10.1639169940        6.0156310807
  C        16.6430579591       13.2580728194        7.0307478005
  C        17.5101915233       12.4510080000        5.0735373689
  C        16.2040141564       12.9270164162        8.2607670720
  C        15.7953779635       10.8912807248        9.3369995428
  H        15.8173645840        9.4599226066        5.2789278120
  H        14.7683788342        9.4656107481        6.6408597582
  C        14.4442345059       11.1499106586        5.4028692670
  S        17.1469943103       14.7299979490        6.2377994796
  C        17.6090335806       13.7892262345        4.8155738358
  H        17.5967220632       11.6748279563        4.3844952061
  C        15.7865568305       13.5897862509        9.3897176550
  H        15.6602384573        9.8989609862        9.2959841275
  C        15.3917929600       11.5162625142       10.4874032583
  H        14.9127178918       11.7773318215        4.7055748030
  H        14.0211020060       11.7534371193        6.1913547168
  C        13.2540987445       10.3739144603        4.7128555794
  C        17.9064467556       14.4226096910        3.4809571294
  C        15.3296041403       12.8859746420       10.5589733545
  H        15.9002952478       14.6937004757        9.4029230665
  C        14.9737047499       11.0826768995       11.7156976700
  H        12.2802432421       10.8745021070        4.7855361670
  H        13.0407110948        9.4921549796        5.3503723635
  C        13.4248784932       10.0913276564        3.2155046278
  C        17.9647066960       15.8206992038        3.2029265094
  C        18.4252723909       13.5710326498        2.4112948881
  C        14.8683530138       13.5547438572       11.8311644913
  C        14.6496488257       12.2041565846       12.4949288176
  S        14.7790171780        9.5775836792       12.5392624568
  H        13.6902280204        9.0366183547        3.0636841879
  H        14.2425051863       10.5464133968        2.6614352919
  C        12.0598070171       10.1393205229        2.4362090115
  N        17.5958723243       16.8535015654        4.1160339869
  C        18.2385534070       16.3542107653        1.9464018111
  C        18.7208540045       14.0335057041        1.1291484462
  H        18.4570711154       12.4813124936        2.6658251921
  C        13.5576062662       14.4069189246       11.4837158940
  C        16.0013223226       14.4421166193       12.5009933571
  C        14.2900939272       11.7975915319       13.7952328269
  C        14.2494573725       10.4012265371       13.9558465352
  H        11.3069992364        9.5208589786        2.8977364186
  H        11.6997354727       11.1856860014        2.4419692982
  C        12.1609992715        9.7635068841        0.9279718154
  S        17.8925718773       18.2817308233        3.4232237650
  N        18.1781768175       17.7927438156        1.8775578900
  C        18.6712644370       15.4829753708        0.8551729359
  H        18.9619359194       13.3102181065        0.4044602104
  H        13.8456926163       15.1081150654       10.6834194371
  H        13.2915690081       14.8963241383       12.4012099166
  C        12.4501372925       13.5617609248       10.8873049266
  H        16.0544041563       15.3325875125       11.9266983493
  H        15.6668481618       14.8303100588       13.4650923113
  C        17.3032936653       13.7005096608       12.7361275732
  H        14.0474502482       12.5847748363       14.5370905451
  C        13.9732720089        9.7513529989       15.2345286903
  H        11.2008991540        9.9325939236        0.5134030328
  H        12.3747822780        8.6826051415        0.7946720487
  C        13.0874200434       10.5153384248       -0.0071034877
  C        18.7749306667       16.0933771129       -0.4482095566
  H        12.7474096540       12.9849369466       10.0452065921
  H        12.1903472286       12.7283952659       11.5733136241
  C        11.1261919213       14.3583761272       10.6039879200
  H        17.5711055525       13.0824443566       11.8423101806
  H        17.1455809207       13.1365836563       13.6734567485
  C        18.5404365440       14.4875617429       12.9117605534
  C        13.9976586242        8.3389671891       15.4539944161
  C        13.7083944453       10.5388211730       16.5257071252
  H        12.9212081185       11.5019928125        0.1007240505
  H        14.2121499049       10.4252517353        0.1807419115
  C        12.7752102524       10.0734395942       -1.4602142134
  H        18.6615062282       17.1878282055       -0.5060733801
  C        19.1200582846       15.6389638530       -1.7500438160
  H        11.2456457445       15.3240168998       10.1632961730
  H        10.7189111747       14.6236931249       11.5887540487
  C        10.1397843287       13.5425174345        9.8069826678
  H        18.9330073721       14.9547937081       12.0435396876
  H        18.3487551796       15.2787348501       13.6319852428
  C        19.5295872350       13.4695989107       13.4485956486
  N        14.1701231810        7.3646760933       14.4312684518
  C        13.7102331390        7.7520166021       16.6787475908
  C        13.5369902855        9.9795507959       17.7259159679
  H        13.6207964897       11.6011182951       16.4286931324
  H        13.1498303053        9.1502942933       -1.8093534825
  H        13.3484996537       10.6859834729       -2.1376579414
  H        11.7668715910       10.1631049253       -1.7396622260
  S        19.4472029661       14.0071013814       -2.1355860292
  C        19.1988782533       16.6234444081       -2.8820630734
  H        10.6283720941       13.2278113462        8.8579687264
  H         9.9447886118       12.6672756859       10.4107282774
  C         8.9247462013       14.3159467092        9.4203870076
  H        20.1240058749       13.0904283211       12.6501794178
  H        19.0418171670       12.5566764907       13.7855971421
  C        20.4625535465       14.0222352997       14.5772059902
  S        13.9919362048        5.9505294456       15.0916945727
  N        13.5945365842        6.4089330815       16.5781917299
  C        13.4327730150        8.4961848876       17.7960907209
  H        13.3530134108       10.6408332098       18.5508074980
  C        19.6076197575       14.6088473608       -3.8719326678
  N        19.3902615216       15.9463122900       -3.9973929275
  O        18.8656538794       17.7747850305       -2.8319765841
  H         8.6313342415       15.0123768903       10.2208988767
  H         9.3546696082       14.8038142581        8.5579151640
  C         7.7617279561       13.3491755357        9.0973939487
  H        19.8254722494       14.3837242768       15.3828768817
  H        21.0593386374       13.2721248650       15.0042347934
  C        21.4568744411       15.0891554650       14.1099258077
  C        13.2093320685        7.7595573444       19.0185016993
  S        20.1124924568       13.7074669470       -5.3043301187
  C        19.4971519459       16.6815754209       -5.2676751564
  H         8.0281820512       12.6479847154        8.2671171556
  H         7.6197606749       12.8336600497       10.0691156339
  C         6.4590036940       14.0490918350        8.6228072258
  H        20.9514686003       15.5311381800       13.2698955696
  H        22.2514931063       14.4830058419       13.6551572190
  C        21.9431452052       16.2466944934       15.0008150926
  H        13.6465978620        6.7794084728       18.9446838416
  C        12.5671016044        7.9253178881       20.2300949063
  H        20.1941640843       16.1731449915       -5.9279460305
  H        19.9435585122       17.6852180169       -5.1018809780
  C        18.1601244081       16.8331796642       -5.9847397289
  H         6.0038821169       13.4837107161        7.8058189633
  H         6.7569737124       14.9358079783        8.1444989882
  C         5.4237465266       14.2625987690        9.6257116114
  H        21.9966604173       15.9193284745       16.0936946589
  H        22.9070614679       16.6438692539       14.7343855608
  C        20.9806832878       17.5026448808       14.9735315872
  S        11.8046434823        9.3676712451       20.6896646993
  C        12.5819067569        6.9329482518       21.3120509898
  H        18.2017706479       16.4813466668       -7.0271694383
  H        17.7353794324       17.8291620685       -5.9322195558
  H        17.3992991141       16.2488456422       -5.4631896268
  H         5.1541198594       13.2848745394       10.0501734114
  H         5.7380453652       14.8807681677       10.4036750897
  H         4.5191560848       14.6749280778        9.2134561094
  H        21.1802314749       18.2248607216       15.7933261343
  H        21.2584171669       18.0523902212       14.0408203995
  H        19.9357706507       17.1859484550       14.8832088054
  C        11.3530888585        8.5507104583       22.1912362543
  N        11.7591894344        7.3186148169       22.3055561255
  O        13.1571828441        5.8667451609       21.2632587201
  S        10.3982316089        9.2313747303       23.5467853377
  C        11.6877677562        6.4925732812       23.5084647640
  H        11.8295954078        5.4692390148       23.1287262608
  H        10.6936923667        6.6960830600       23.9992965000
  C        12.6423837523        6.8446369357       24.5144117191
  H        13.5859692653        6.4594273232       24.2264834640
  H        12.1904897580        6.5248079343       25.4351329691
  H        12.7243027696        7.8998262797       24.5070080094
