352
 i =    40700, time =    40700.000, E =        24.9431618073
  H        11.7282755110        7.0876728172       32.8897165701
  C        11.3779442915        6.1350279768       32.6310278092
  H        12.1782900673        5.5181664610       32.3127037009
  C        10.3634340296        6.3393077674       31.5641156438
  C        10.7429923098        5.7350816624       33.9274903788
  C        11.0520166301        6.1451930243       30.1626793610
  H         9.5560263424        5.6965487953       31.6494614247
  H        10.1155187067        7.3881225007       31.6824840790
  H        10.1560629842        4.8584749201       33.9012590456
  H        11.5447239452        5.7030461534       34.6695297757
  H        10.1831668451        6.6014664501       34.3268711066
  C        10.0345589598        6.3582553421       29.0166595235
  H        11.4940712290        5.1342318560       30.0913729529
  H        11.7917029481        7.0024353975       30.0223200497
  C        10.6081029691        5.8118859711       27.6155178304
  H         9.0980961992        5.8552436935       29.3130685110
  H         9.7842356154        7.4492999398       28.9758947401
  C         9.5268780842        5.0882029035       26.8382468478
  H        11.5017933427        5.2109187339       27.8083924802
  H        10.8474327252        6.7689814218       27.0334042100
  C         8.4140246795        6.0999499816       26.3877701173
  H         9.8826209313        4.5858681463       25.9098822823
  H         9.1603587472        4.3240843530       27.4741750237
  C         7.2987122407        5.4517500266       25.5388035720
  H         7.8863771911        6.4652390744       27.2111199058
  H         8.9112701725        6.9659217117       25.8611445221
  C         6.9308773512        4.1266125915       26.1657691752
  C         7.8000707877        4.6570200356       24.3225982156
  C         6.1264391446        6.3909093149       25.3412051162
  C         7.2707847080        2.9820035524       25.3719747778
  C         6.4534156477        3.7331383141       27.3832314695
  C         7.7312557801        3.3443604022       24.1565021138
  C         8.3593901602        5.3365914545       23.2636693359
  H         6.3565534939        7.1500542931       24.5708401006
  H         6.0509348406        6.9771099696       26.2272435497
  C         4.8521488761        5.7282135785       24.8823778532
  S         6.8421915385        1.5116585566       26.1371147306
  C         6.3231333236        2.3798732014       27.5219298645
  H         6.2303886145        4.6104100539       28.0295269973
  C         8.1282618900        2.7728068349       23.0041141441
  H         8.3124039492        6.4339765076       23.2992495168
  C         8.7601211842        4.7420843670       22.0940169533
  H         5.0260925720        5.6042770132       23.8592473319
  H         4.6554345942        4.6916769616       25.2972158568
  C         3.6319237868        6.4880165447       25.2366722600
  C         5.8082117531        1.6828271655       28.7644349435
  C         8.6912022889        3.4504243590       21.9598585639
  H         7.9536233076        1.7363618792       22.8699211334
  C         9.2020928008        5.2076924637       20.8865779584
  H         2.7290650421        6.2525339139       24.5515887639
  H         3.9356079354        7.5010057536       25.0301333347
  C         3.3381962247        6.3833453777       26.6951050634
  C         5.7336333465        0.2635971470       29.0333374253
  C         5.4892827202        2.5910891660       29.9733422377
  C         9.0902515470        2.7982507308       20.6847040135
  C         9.3595528312        4.1705116441       19.9881879791
  S         9.1616711866        6.6950947430       20.0935774741
  H         2.9065345013        7.3001159674       27.0013229206
  H         4.2675039355        6.2437143518       27.2919366563
  C         2.4396060668        5.2098370544       26.9028034813
  N         5.9522088445       -0.7553490364       28.0859050284
  C         5.4492551048       -0.1454632241       30.3634910893
  C         5.2127684877        2.1430846789       31.2604252716
  H         5.3971128858        3.6432140024       29.7574278523
  C         7.9816623950        2.0384240420       19.9782000044
  C        10.3192655012        1.9614732232       20.9529340480
  C         9.7102031771        4.6500812743       18.6833780820
  C         9.7172766018        5.9763072564       18.6148101877
  H         1.7170912353        5.0800792661       26.0826389586
  H         3.0300004682        4.2612215287       26.8628736789
  C         1.5895041537        5.4161775298       28.1850572599
  S         5.7781118560       -2.1765503800       28.8791579392
  N         5.4680220991       -1.5887376730       30.3796560082
  C         5.1524518141        0.6886959707       31.4802101317
  H         4.9867618088        2.9154447243       31.9396015646
  H         7.6093226695        1.1497575167       20.4950789594
  H         8.3209723931        1.7688221602       18.9570766283
  C         6.7163960450        2.8829273069       19.7660596940
  H        10.5255306656        1.1296791253       20.2618714795
  H        10.1739132811        1.3671965339       21.8359513413
  C        11.6136217667        2.7997930106       21.3339931046
  H         9.9694506801        3.8510434145       17.9581192773
  C        10.0959361781        6.7764993217       17.4119054901
  H         0.9324313295        4.5181234175       28.1606846482
  H         0.8949917466        6.2782058314       28.1423928555
  C         2.4263588683        5.4624337903       29.5557433846
  C         4.8710741642        0.0747854235       32.7344693315
  H         6.8823485152        3.8254647075       19.2540556995
  H         6.2832459726        3.2725762639       20.6768877711
  C         5.6526926166        2.1581629825       19.0092199305
  H        11.4133852424        3.4068514697       22.2540173608
  H        11.8486137199        3.4929109258       20.5516683295
  C        12.8463755947        1.9437363977       21.5970692015
  C        10.1629651888        8.1668025880       17.2803321385
  C        10.3104652902        5.9689545681       16.1278540935
  H         2.7832394566        4.4556711408       29.7916939159
  H         3.3589379524        6.1610950124       29.6604157854
  C         1.5761772393        5.8377151835       30.7293939959
  H         4.7928805592       -0.9997151552       32.7375185982
  C         4.4823706255        0.5397700472       33.9295593167
  H         5.0125236279        1.5461305871       19.6348567203
  H         6.0585632027        1.6019820872       18.1698823052
  C         4.7479493522        3.1985281765       18.3643844211
  H        12.7104167647        1.3935584092       22.5707580863
  H        12.7416461355        1.2308423060       20.7885383478
  C        14.2444046092        2.6997322246       21.4847673313
  N         9.8273034344        9.0669967204       18.3371668074
  C        10.4549153532        8.8244806815       16.0445007398
  C        10.6035459199        6.6465784664       14.9015744515
  H        10.0778421143        4.9076505702       16.1387167353
  H         0.8282531119        5.1543680307       31.0758879157
  H         2.2834044921        6.0422529948       31.5621198919
  H         1.0567220320        6.7273659260       30.4250078893
  S         4.1688818372        2.1493275928       34.3921858765
  C         4.4526479975       -0.4051754985       35.0035322196
  H         4.6419967155        4.0214613514       19.0337433707
  H         5.2221811957        3.6815971910       17.4883734972
  C         3.3947381982        2.6267470840       17.8828121090
  H        14.2541880474        3.6082986368       20.8862324255
  H        15.0016526541        2.1039951989       20.9734108005
  C        14.9621295174        2.9881761692       22.7863166945
  S         9.8824167305       10.5944641889       17.7348271159
  N        10.4628771568       10.2362486516       16.2306419191
  C        10.6301433965        8.1372833731       14.8323011058
  H        10.7287637897        6.0875611024       14.0093847114
  C         3.9736519443        1.5138604036       35.9843247340
  N         4.1022012162        0.1839150721       36.1415400428
  O         4.5334081491       -1.5982921824       34.8292139372
  H         2.7342478718        3.3999667258       17.4653615481
  H         2.8979457333        2.2488227673       18.8105373252
  C         3.6198785493        1.3117180526       17.0607028345
  H        15.7088947033        3.7138595228       22.5179684440
  H        14.3476837680        3.5702003490       23.4706186184
  C        15.5940878777        1.6938213265       23.2796857506
  C        11.0821310870        8.9466554018       13.7050370688
  S         3.5190362873        2.5403724068       37.3660253703
  C         4.0779127139       -0.5667842463       37.3914091645
  H         2.7964023900        1.2569861921       16.3545411903
  H         4.5010512310        1.2365287129       16.4096764194
  C         3.3235484160       -0.0103584909       17.8261477716
  H        15.5516043447        0.9422705433       22.5101251608
  H        15.0164857550        1.4270203152       24.1488257915
  C        17.0524448316        1.8768624121       23.7112784794
  H        11.1486695821       10.0119994017       13.8097416109
  C        11.5055080347        8.6689288136       12.4359416947
  H         3.4935442493       -0.1239756655       38.2141039903
  H         3.5279957297       -1.4812572731       37.2322737964
  C         5.4886729759       -0.7984427326       37.9599002874
  H         3.3237415238        0.0400062717       18.8803925088
  H         4.2528222865       -0.4694263882       17.5239032896
  C         2.1923219395       -0.8555641931       17.2113965263
  H        17.0287203146        2.7029692338       24.4392592058
  H        17.4367899319        1.0332835090       24.2778529048
  C        18.0258082791        2.2210824040       22.5543575807
  S        11.9866532460        7.0993223701       11.8231215924
  C        11.6443205623        9.7582166782       11.4314058368
  H         5.4960625295       -1.8252454946       38.1861415090
  H         6.2721379751       -0.7514187254       37.2417878587
  H         5.6295683185       -0.1835319261       38.9045522247
  H         1.2828194689       -0.6769462297       17.6980274934
  H         2.4383471784       -1.9223448207       17.2241451398
  H         2.0106720947       -0.8894203769       16.1004282835
  H        19.0230084191        2.5651139096       22.7911295915
  H        17.7206188774        3.1259167977       22.1332108805
  H        18.0419470969        1.4831962267       21.7918537068
  C        12.3501164684        7.9823444274       10.3168824896
  N        12.1265659696        9.2747109047       10.2662439741
  O        11.2721759611       10.9188776236       11.6369871541
  S        12.8688473322        7.1913114588        8.8457180619
  C        12.2104640590       10.1821527066        9.0586136287
  H        12.1815957375       11.2087162151        9.3218492531
  H        13.1762518147        9.9479006353        8.5535071986
  C        10.9719667947        9.9099921726        8.1506805047
  H        11.3888230582        9.6243272601        7.2032505735
  H        10.3622635121        9.0175522357        8.3864758637
  H        10.3009145690       10.7271376870        8.0970639195
  H        20.5451061791       10.6416373820        3.8845727291
  C        21.5681800121       10.3044083573        3.7292253414
  H        21.4807079697        9.2436607216        3.7494541268
  C        22.4128214864       10.8945849927        4.8815124491
  C        21.9445670671       10.7240606356        2.2869193251
  C        21.6461124745       11.1772906819        6.1084789379
  H        23.2874072915       10.3593012224        5.0430741575
  H        22.6576749149       11.8330697946        4.4437184529
  H        21.7062677065       11.7112378986        1.9290777655
  H        21.5106544777        9.9678548322        1.6003204658
  H        23.0538644251       10.5955952051        2.2372930831
  C        21.0212390567        9.9333733574        6.7721293674
  H        22.3472113818       11.5956674892        6.8603603404
  H        20.8082836463       11.8301893930        5.9084377336
  C        20.4486111271       10.0099680393        8.1977232259
  H        21.7653783869        9.1321341016        6.7775470693
  H        20.2029842044        9.6159508039        6.1350567893
  C        19.1400337342       10.7806862665        8.1852778387
  H        21.2124489961       10.4471568649        8.8773730773
  H        20.2355398499        9.0190069090        8.6065850311
  C        17.9746249494        9.9883634982        7.5128257630
  H        18.9098673117       11.0271487107        9.2400831914
  H        19.4076759647       11.7283312893        7.6910853598
  C        16.6567031946       10.8890465554        7.2427214430
  H        17.7417298127        9.2825936153        8.2656608488
  H        18.1727953910        9.3480610037        6.6358834728
  C        16.9963368899       12.1902389331        6.5339070132
  C        16.2078190624       11.6638001080        8.4551256802
  C        15.5419635704       10.2024116529        6.4186849111
  C        16.7633315297       13.3695976014        7.2297849195
  C        17.5433621954       12.5104227209        5.2301624551
  C        16.3007001081       13.0385978321        8.4817216178
  C        15.9493235167       11.0091813175        9.6269783901
  H        15.8716546827        9.9189568789        5.4603456565
  H        15.2844505658        9.3433165137        6.9408238200
  C        14.2452433204       11.0563796658        6.1453782878
  S        17.1021632153       14.7756187209        6.3495337768
  C        17.6869491927       13.8276754239        4.9862395335
  H        17.7743391651       11.6656474232        4.4917254477
  C        15.9702650165       13.6784245131        9.6474429787
  H        16.0615297587        9.9304914018        9.5742295415
  C        15.4758631983       11.6602797903       10.7204858253
  H        14.4297759397       12.1510894234        6.0443532680
  H        13.4787564604       11.0334017103        6.8509565966
  C        13.5242502467       10.3782428086        4.9710046017
  C        18.2127950530       14.4761004371        3.7389682230
  C        15.5358081984       12.9974830106       10.7940778260
  H        16.0523272368       14.7246549291        9.6023111837
  C        15.0508189740       11.2705843021       11.9879842575
  H        12.5082408453       10.8351190714        4.9525093146
  H        13.3856901984        9.3556248258        5.0909038432
  C        14.0144378427       10.5656200797        3.5987239269
  C        18.1963757987       15.9031536931        3.4690221917
  C        18.8049094750       13.6714885512        2.5796455739
  C        15.1044463450       13.7092804426       12.0693802627
  C        14.8029116037       12.3662232486       12.8271185162
  S        14.7177625326        9.7216911636       12.7502703647
  H        15.0819543154       10.5238829566        3.5876519745
  H        13.8568268735       11.6143898505        3.3929828151
  C        13.3986306319        9.7558089168        2.5097371419
  N        17.9268268250       16.9051490687        4.4626144868
  C        18.5754792658       16.4454915884        2.2578053841
  C        19.0757827415       14.2176542942        1.3285382910
  H        18.7649061291       12.6271251017        2.6709579033
  C        13.8844201619       14.6505048853       11.7477951096
  C        16.2868380113       14.4692414432       12.7502815916
  C        14.4146488109       11.9364334200       14.1036581817
  C        14.3034473893       10.5911483311       14.1682939550
  H        13.7928208362        8.7571311009        2.5926183852
  H        12.3304472689        9.6999322418        2.6725704430
  C        13.6724972060       10.3089214905        1.1301051010
  S        17.7836618207       18.3441127153        3.6682985330
  N        18.3404739994       17.8372330023        2.2114691132
  C        18.9165604195       15.6723207793        1.1434640385
  H        19.3816930386       13.5761646064        0.5289779071
  H        14.2422716305       15.4348831011       11.1211844118
  H        13.5792182287       15.2570635152       12.5845991454
  C        12.6330190881       13.9148554306       11.2039164305
  H        16.6031141189       15.3400637046       12.1813925696
  H        15.9382931821       14.8816619979       13.6761255224
  C        17.5662001977       13.7036465731       12.9378849353
  H        14.3251596312       12.5734153020       14.9555453604
  C        14.0034912918        9.8527754275       15.4117374478
  H        14.6648533843       10.2524415462        0.8032678314
  H        13.4140331278       11.4177339179        1.0831812889
  C        12.7701277870        9.8143188570       -0.0475606246
  C        19.3079895857       16.3556001865       -0.0960746393
  H        12.8238325248       13.5678754461       10.1803691394
  H        12.2958802822       13.1022625947       11.8908806834
  C        11.4015731605       14.8708138009       11.1738822927
  H        18.3455938101       13.9833260502       12.1988702196
  H        17.3613042476       12.6409362294       12.7451650810
  C        17.9879628583       13.7298497031       14.3892593900
  C        13.8332726045        8.4641172155       15.5441577886
  C        13.7526094026       10.6200208153       16.6924173523
  H        13.1012270483        8.8317059908       -0.3322349955
  H        11.8404048908        9.6006893069        0.3856278960
  C        12.7631102319       10.7059821914       -1.3218727694
  H        18.9763465474       17.4318565323        0.0404489530
  C        19.5904616016       16.0009081616       -1.3941886697
  H        11.6800106594       15.6824952674       10.5469320054
  H        11.2863679286       15.2998194940       12.1190503427
  C        10.0682146238       14.2428779964       10.6972474788
  H        18.0507328253       14.7944535900       14.6658597543
  H        17.1646965594       13.2957954833       14.9828105220
  C        19.3410652130       13.0523747272       14.7686866676
  N        14.1235124825        7.5547697310       14.5492069394
  C        13.6131566532        7.8874204306       16.7552094969
  C        13.5407331708       10.0037401085       17.9029924245
  H        13.8463595039       11.7260541186       16.7481723700
  H        13.6751282512       11.3134295277       -1.3731875069
  H        11.8187741807       11.1968532708       -1.4361590686
  H        12.8963375340       10.0595463470       -2.1325628717
  S        19.8060116092       14.3338325117       -1.9822650332
  C        19.7788001336       17.0522938333       -2.3694544831
  H         9.8713940570       13.2629430481       11.1764373350
  H         9.2440739774       14.9547077947       10.9503721859
  C        10.1842435428       13.9933429479        9.2048010870
  H        19.4040317427       12.0850152034       14.2707504848
  H        19.5867055542       12.8961801873       15.8249688950
  C        20.5019924547       13.9851457792       14.3037233967
  S        13.8516525439        6.0437011414       15.1496259690
  N        13.4966335191        6.4425816522       16.7164222258
  C        13.4609701084        8.5752260582       18.0008857827
  H        13.3848484458       10.4722533957       18.8594807579
  C        20.0215504749       15.1005058743       -3.5728330553
  N        20.0700964239       16.4811849839       -3.5396528365
  O        19.6002212753       18.2468344464       -2.1621607173
  H        10.4169682556       14.8920090001        8.6566637002
  H        11.0820100662       13.4112183177        9.0857038300
  C         8.9686342682       13.1915853080        8.7049161399
  H        21.2200325042       13.2976490075       13.9207577407
  H        20.1415086712       14.6086237177       13.5049248460
  C        21.1597199161       14.8744294259       15.3243956637
  C        13.2246340087        7.7685259940       19.1850166698
  S        20.4742344211       14.4383985925       -5.1405202168
  C        20.2230954710       17.3368717127       -4.7437542625
  H         9.2721081953       12.5897340500        7.8331550420
  H         8.7460627679       12.4071878823        9.4043417087
  C         7.7686968722       13.9751099607        8.2984672670
  H        22.1589265559       14.5465427054       15.6458110779
  H        20.5653608660       14.8992542888       16.2275640289
  C        21.1753708071       16.2880150826       14.9824936723
  H        13.4775876114        6.7082689601       19.1613153550
  C        12.6058017196        8.0135832143       20.3625919965
  H        21.0286368844       16.9592636385       -5.3706582470
  H        20.4763243971       18.2891706759       -4.4068811966
  C        18.8377974471       17.5057030600       -5.4313303095
  H         7.5037664302       13.6061803289        7.3020371431
  H         8.0121965405       15.0416229917        8.1626960039
  C         6.6665989932       14.0427160034        9.4026048375
  H        20.1446271559       16.6132585597       15.0059402489
  H        21.5799331346       16.8680085831       15.8386626448
  C        21.8716340279       16.6206936169       13.6601119700
  S        11.9138836125        9.5232642302       20.8979139123
  C        12.4936098210        6.8885408236       21.3634004504
  H        18.4779387585       16.7073829866       -6.1394403913
  H        18.9151536415       18.4324191337       -6.0298552900
  H        18.0587923934       17.8054608531       -4.6582472745
  H         6.7296484934       14.9807408506       10.1364836420
  H         5.6532196147       14.1936299005        8.8867851630
  H         6.7673940155       13.1705602620       10.0985894579
  H        21.3210864808       16.2007798166       12.7970429342
  H        22.0100634453       17.7302214266       13.6775809245
  H        22.8520866888       16.1654005719       13.6300946349
  C        11.6020171780        8.6437875572       22.4011286954
  N        11.8306513369        7.2733369094       22.4473613813
  O        13.0490495743        5.8211398408       21.1969010535
  S        10.4034325850        9.2765619356       23.5448891907
  C        11.5974640316        6.4394076602       23.7014241136
  H        11.2846873261        5.4373201727       23.4028418834
  H        10.8780502777        6.7215863554       24.3540992027
  C        12.8942624368        6.4206646013       24.4783473020
  H        13.5218953150        5.6118286918       24.1311215942
  H        12.8205417823        6.1143542526       25.4816636565
  H        13.4629230727        7.3142923137       24.4195263974
