352
 i =     5000, time =     5000.000, E =        32.1487410322
  H        12.2680923796        5.1257562796       32.3064366103
  C        11.2293674182        5.4593272710       32.0531347088
  H        10.5031502474        4.6943737366       31.8855743860
  C        10.9871179858        6.4349660062       30.9216964515
  C        10.7044371668        6.0862819977       33.2575733100
  C        11.3999646858        5.8326140608       29.6570570164
  H         9.9573082625        6.8941642547       30.7858439393
  H        11.6968017896        7.2364033809       30.9437204941
  H        11.2938557448        6.7493826259       33.8379009539
  H         9.7374503787        6.5500215886       33.1685599900
  H        10.4771600112        5.2071383019       33.9125563094
  C        10.2310472864        5.5018411397       28.6957735436
  H        11.9383921319        4.8897139350       29.8359722574
  H        12.0962665947        6.5251093657       29.1487021118
  C        10.6209787654        5.3369409441       27.2031514216
  H         9.6402673661        4.5844638682       28.9900729198
  H         9.5097228903        6.3163942439       28.7427510785
  C         9.5607781339        4.7996854282       26.2157120441
  H        11.4364139054        4.7018144256       27.0268789708
  H        10.8622203186        6.3677640255       26.9510354145
  C         8.3797367074        5.7691643143       25.9388135963
  H         9.9635246905        4.4484675461       25.2890607720
  H         9.1101279873        3.8606592621       26.5874355413
  C         7.1240328135        5.1821232345       25.2644461660
  H         8.0973643768        6.1051802513       26.8886531944
  H         8.6430102388        6.6039103308       25.3555654610
  C         6.7013136836        3.7967680060       25.9304709621
  C         7.4333067086        4.4195205898       24.0362237601
  C         5.9086859140        6.1510227076       25.2381862493
  C         6.8111973665        2.7450079975       25.0953100978
  C         6.1886944228        3.4466887006       27.2047066976
  C         7.3632215388        3.0546275346       23.8925194417
  C         7.8563826942        5.1068691918       22.8873750636
  H         6.0580590934        6.9941497156       24.6246032055
  H         5.7643627060        6.6411407303       26.1416950532
  C         4.6316082042        5.4166656969       24.7814354039
  S         6.4993223574        1.2071198641       25.9049593949
  C         6.0785771617        2.0583297516       27.3645788044
  H         6.0249526055        4.2215319656       27.9714841876
  C         7.8021707928        2.4781834865       22.7499116032
  H         7.8649288318        6.2492518781       22.8440010312
  C         8.3235257372        4.5080490469       21.7383670272
  H         4.7100248208        5.0035718333       23.7387597652
  H         4.5314589948        4.5753672227       25.4835987790
  C         3.2982892248        6.2890101309       24.7084025444
  C         5.7381142332        1.3989474424       28.6162575450
  C         8.3085641472        3.1984713730       21.6635248089
  H         7.8598011749        1.3427695820       22.6503018153
  C         8.7464368960        4.9017619287       20.5383618109
  H         2.6535770827        5.8327771284       23.9763918332
  H         3.4558559695        7.3003478131       24.3659605941
  C         2.4488647891        6.4992714638       26.0206848897
  C         5.8465504443        0.0329550767       28.9223520908
  C         5.3963130357        2.2516140305       29.8441671836
  C         8.8412733342        2.5376922760       20.4461863285
  C         9.1080884835        3.8155755764       19.7687408635
  S         9.1508364088        6.4417376684       19.8991267226
  H         1.6678640504        7.2972008696       25.8798252717
  H         3.0592014561        6.7792738960       26.8525795353
  C         1.6915338580        5.1572355917       26.2901987159
  N         6.1714074972       -0.9854045552       28.0007971822
  C         5.5872360318       -0.4181349716       30.2167773404
  C         5.1054824762        1.7942344813       31.0945932853
  H         5.3485539363        3.2598676744       29.5731417554
  C         7.8209239362        1.7635262804       19.5319490684
  C        10.2027317678        1.7772629526       20.5932796215
  C         9.4808586056        4.2570760120       18.4652799567
  C         9.5151834899        5.7066046800       18.3618404936
  H         1.0283372828        4.8558248892       25.4308845490
  H         2.3743136641        4.2938960456       26.5463888733
  C         0.7677902389        5.3380517743       27.5562908144
  S         6.1748192067       -2.4009736472       28.8744349657
  N         5.8385878945       -1.7916921096       30.3432300377
  C         5.0972738540        0.3459128661       31.3178798861
  H         4.8537890853        2.5220381480       31.9560742873
  H         7.4001293978        0.9324298049       20.0022805197
  H         8.3925759543        1.2963822415       18.7373264726
  C         6.6010828798        2.6276794616       19.0823631194
  H        10.4836658713        1.7490629063       19.5358656125
  H        10.0266474528        0.7160735580       20.9033844598
  C        11.2336868096        2.4474158485       21.4590939692
  H         9.9047875742        3.6552730860       17.7219151406
  C         9.8810269673        6.5044836730       17.1089120326
  H         0.1480475079        4.4726399974       27.6896678033
  H         0.1770392505        6.2445306440       27.6310512352
  C         1.5365556654        5.3684374770       28.8651187521
  C         4.8556048880       -0.3085358161       32.6156932534
  H         6.9338966511        3.2721282541       18.2110376002
  H         6.2256959199        3.2208920309       19.8609356054
  C         5.5500769413        1.6832682604       18.5203856009
  H        10.7757258678        2.6655807597       22.4114416273
  H        11.2753475328        3.4168462354       21.0687456777
  C        12.5590465719        1.7525911833       21.6025482128
  C         9.8080343399        7.8652972146       16.9659464258
  C        10.0482058033        5.7548986634       15.8309360334
  H         2.2653736917        4.6777025170       28.8517890431
  H         2.0892556861        6.3408931806       28.8500256634
  C         0.7324517175        5.4494857997       30.1739906500
  H         5.1271241293       -1.3759451204       32.5645511982
  C         4.4596657771        0.1388073494       33.8880101578
  H         5.1174156559        1.0722991415       19.3407209695
  H         6.0242513856        0.9305420472       17.7912632458
  C         4.5063010039        2.3987870209       17.6722973808
  H        12.5467231862        0.8224394518       22.0837930358
  H        12.8237641614        1.6326280998       20.5578780694
  C        13.5080455021        2.5465263460       22.4388104741
  N         9.5979572097        8.7891865679       17.9871702930
  C        10.1838010785        8.5073467532       15.8048353821
  C        10.3366429328        6.4207942279       14.6264016528
  H         9.9700857494        4.7364881925       15.8509174981
  H         1.6251518519        5.3612244049       30.9675650366
  H         0.3006622313        6.4161575265       30.2543526605
  H         0.0430413973        4.6416156286       30.3747195880
  S         4.0299133416        1.7190435604       34.2879556268
  C         4.5066944275       -0.8462163532       34.9712639328
  H         4.6603383141        3.4256402347       18.0098878365
  H         4.7471305564        2.4266878235       16.6192721178
  C         2.9937594821        1.9793023272       17.8713584329
  H        13.0376286541        2.8534896200       23.3006127060
  H        13.7741170767        3.4837158009       21.9702902477
  C        14.6419106030        1.7098146932       22.8339307631
  S         9.8502780627       10.2980263952       17.4332031511
  N        10.1954419192        9.8966243009       15.9271750547
  C        10.5361007750        7.8652037310       14.6352190967
  H        10.5319875608        5.9688658040       13.7096908754
  C         4.0279199034        1.0979978225       35.9792247406
  N         4.1980814145       -0.2419661774       36.1260585949
  O         4.7822006277       -2.0203319778       34.8197152341
  H         2.2394151866        2.6634964968       17.4396921029
  H         2.7536548998        1.8022954212       18.9572730304
  C         2.7331895486        0.7206665586       17.0242609514
  H        14.5109891689        1.1230894653       23.7431407789
  H        14.7144366565        1.0267395063       21.9098662523
  C        15.7960395015        2.6166517567       23.2049061103
  C        10.8727455987        8.6142123559       13.5040978162
  S         3.7743820102        1.9852477381       37.5498809054
  C         4.0833301935       -1.0499346508       37.3571352354
  H         1.8681119203        1.0502345422       16.4894114389
  H         3.6026588366        0.5487592326       16.2900820462
  C         2.2924707788       -0.5368525840       17.8026150078
  H        15.4313916508        3.2280303301       24.0490412092
  H        15.8682652927        3.3362733560       22.3170723549
  C        17.1405386031        1.7829735048       23.4299259551
  H        10.6807468342        9.7066041040       13.5830490507
  C        11.3757622053        8.2718738923       12.2593443369
  H         3.3783181021       -0.6567354894       38.0696092904
  H         3.5981708123       -1.9305208803       37.1136394878
  C         5.4636560245       -1.2361586589       37.9321374069
  H         2.2524236529       -0.1126795657       18.8124161558
  H         3.2004116578       -1.1079113557       17.7255205819
  C         1.0820574675       -1.3574118310       17.3474266041
  H        17.8877326982        2.3853082165       23.7879844935
  H        17.1224063238        0.8906070726       24.0357620439
  C        17.7265483231        1.5206701606       21.9779828626
  S        12.0263603077        6.7479406628       11.7973326622
  C        11.4743454961        9.3413161313       11.1864552522
  H         5.6567523101       -0.3965877400       38.6880794419
  H         5.4793481376       -2.1176784407       38.5895622630
  H         6.2540109661       -1.2170499616       37.2004098725
  H         0.8365930146       -2.0220448072       18.2133724525
  H         1.3833274202       -1.9601220198       16.4633018467
  H         0.1478283980       -0.7834219530       17.0501532017
  H        17.2311171845        1.9954305123       21.1570969198
  H        17.4394635664        0.5403553029       21.7548587788
  H        18.8645512778        1.5944102418       21.8235711443
  C        12.2160635675        7.4086084697       10.2127595345
  N        11.9786061023        8.7621111973       10.0483096151
  O        11.3080735874       10.5253913453       11.3679835392
  S        12.5993309137        6.5114632702        8.7293839646
  C        12.1408314281        9.7050270780        8.9671655086
  H        12.4003518252       10.7630018247        9.3107761375
  H        13.0740399459        9.4775373008        8.4947057619
  C        10.9843193544        9.5544941525        7.9128528049
  H         9.9876865948        9.5621953983        8.2547432289
  H        11.2302175672       10.2757476760        7.1353050845
  H        11.0465277617        8.5178569784        7.4158009203
  H        21.1918203422       11.1911689036        3.7468118387
  C        21.8017761356       10.2257146153        3.8907936860
  H        21.1217641862        9.3222484270        3.9398994846
  C        22.6929023240       10.3509956776        5.0537374737
  C        22.5282574619       10.2377534877        2.4881775538
  C        22.0213887436       10.5197402665        6.3474282667
  H        23.3640872814        9.5009803107        5.1541832003
  H        23.4001485377       11.1324382004        5.0921263203
  H        21.8897045711       10.3425496911        1.6300103486
  H        23.1223831936        9.3462128759        2.3448471430
  H        23.2265337147       11.1028222144        2.6043503075
  C        21.2600674724        9.2956929628        6.9586039017
  H        22.8576925635       10.6667104216        7.0109123318
  H        21.4721799872       11.4480211382        6.2658354719
  C        20.5592823188        9.9351142811        8.1490885988
  H        21.9674654932        8.6191840624        7.4388694579
  H        20.6575662057        8.7279040753        6.2521741818
  C        19.3163261647       10.7557738115        7.8359416349
  H        21.1249416876       10.5620469496        8.9295813350
  H        20.1883921884        9.1833234631        8.7926146181
  C        18.1340572064        9.9653195424        7.3258480685
  H        19.0712367583       11.3153822490        8.8119376931
  H        19.5355488302       11.5206459903        7.1132076952
  C        16.8161207101       10.8240443519        7.0918376870
  H        17.9836051590        9.1384994665        8.0199439727
  H        18.3823686035        9.4700109767        6.3732021287
  C        17.0362718556       12.1748112811        6.3851953104
  C        16.3787722537       11.5270365327        8.3291830238
  C        15.6736033384       10.0725079035        6.4677268091
  C        16.9489273692       13.2888367984        7.2315984331
  C        17.4109430141       12.5072125164        5.0697003751
  C        16.4877979229       12.9003581403        8.4798457315
  C        15.8493573948       10.8822874230        9.3764262083
  H        16.0053139291        9.6529266371        5.5197274447
  H        15.5073319584        9.1913045306        7.1063321052
  C        14.4055142452       10.8486663643        6.1544874991
  S        17.3709690537       14.7233505054        6.4474891106
  C        17.6174890598       13.8896981172        4.9862934395
  H        17.5466906818       11.7607721099        4.3286643061
  C        16.0621944652       13.5429949883        9.6327351093
  H        15.7853716831        9.8133916279        9.2537603765
  C        15.5132877470       11.5078424941       10.5507536782
  H        14.6790276364       11.7685731125        5.6146604151
  H        13.8463614448       11.1059610678        7.0703394655
  C        13.4768309250       10.1011587613        5.1899071642
  C        18.0305135100       14.5087133265        3.6734530041
  C        15.6134900292       12.8308660901       10.7407331511
  H        16.0817022994       14.6893622886        9.6291396423
  C        14.9501156633       11.0890729923       11.7286667209
  H        12.3984809763       10.2816262203        5.2449166152
  H        13.6292801826        8.9766928089        5.5222105260
  C        13.9697027695       10.3763189702        3.7158797854
  C        17.9506180829       15.8779350631        3.4908795708
  C        18.4376449487       13.6681013644        2.5103274694
  C        15.1187609485       13.4809592515       11.9995786560
  C        14.7884618941       12.1045082004       12.5828086978
  S        14.5889893780        9.5325489725       12.4331160994
  H        14.8719309051        9.7486912911        3.6209336272
  H        14.3656263635       11.3588078571        3.5627142980
  C        13.1517946308        9.8325420315        2.6020691169
  N        17.5888634884       16.8977765022        4.4435168536
  C        18.2520432202       16.5070326878        2.2816761513
  C        18.7505738662       14.3462702562        1.3260011018
  H        18.4763525607       12.6198759337        2.5505438353
  C        13.8599672335       14.4262901158       11.8686991301
  C        16.1689515103       14.1697452982       12.7992175064
  C        14.3079996784       11.6732185305       13.8393450953
  C        14.1014404974       10.3329086071       13.8908527563
  H        12.8730714641        8.8211357339        2.8776992565
  H        12.2783482894       10.4926653134        2.5394924370
  C        13.8821030735        9.8119389309        1.3002480609
  S        17.5755688356       18.3722108138        3.7257479132
  N        17.8975476530       17.8328195578        2.2664040122
  C        18.6313531368       15.7611976686        1.1136702561
  H        18.9835819157       13.8182352435        0.4085128745
  H        14.0293142049       15.3432730970       11.2979924649
  H        13.6075494248       14.8415780361       12.8523986534
  C        12.6338342692       13.5778980074       11.3972549388
  H        16.7106184584       14.9115015222       12.1561288186
  H        15.7253357364       14.7905015452       13.6076879100
  C        17.2655011183       13.2530537596       13.3337289846
  H        14.2943859542       12.3937902856       14.6018914496
  C        13.8771744411        9.5480695976       15.1802914170
  H        14.7287239436        9.0909282926        1.1520626625
  H        14.1913680612       10.8390344774        1.1567941301
  C        12.9438005431        9.6715157565        0.1275927790
  C        18.9311725632       16.5025000898       -0.0806918731
  H        12.8635443862       12.8580106656       10.6391960527
  H        12.1651756622       13.1269024913       12.2631984111
  C        11.6129806260       14.4450918027       10.6841724949
  H        17.7565986782       12.6748089474       12.5732275167
  H        16.8255044528       12.4482646941       13.9018048470
  C        18.3052153474       14.0503885837       14.1908359422
  C        13.9918420564        8.1605144011       15.3731864319
  C        13.5666156990       10.3226082400       16.3554316016
  H        12.5575164061        8.6425740929        0.2852717256
  H        12.1178032512       10.3005694865        0.3005827798
  C        13.5692148508        9.7980754167       -1.2463797868
  H        18.6405422743       17.5365369168       -0.1049517468
  C        19.3449696905       16.1529257541       -1.3394681097
  H        12.1375662612       15.0110360696        9.8273768920
  H        11.3293567217       15.1831959093       11.3727421007
  C        10.5424941232       13.5178836586       10.1504938261
  H        18.5840100530       14.7949048316       13.5607073454
  H        17.8249520876       14.5339784815       15.0613596832
  C        19.6097244399       13.4386716403       14.5433244359
  N        14.1481002948        7.2375749991       14.3653242517
  C        13.6939645015        7.5412341360       16.5969971465
  C        13.3027535201        9.7374572789       17.5911194120
  H        13.6196335179       11.3731365318       16.3139134223
  H        13.4934049638       10.8435509588       -1.5751803153
  H        13.1975869533        9.1184370182       -2.0893421480
  H        14.5872720168        9.6093199758       -1.0506307934
  S        19.6644385419       14.5393888664       -1.8952774144
  C        19.2770808662       17.1785988519       -2.3560355412
  H        10.8011927924       13.2764133237        9.0887662226
  H        10.5078858185       12.6235249028       10.7585114004
  C         9.2218603482       14.1858170343       10.1034263535
  H        19.7060253152       12.4672236048       14.0903744273
  H        19.4430067862       13.2893080831       15.5686047155
  C        20.9568463617       14.2475143189       14.4208759216
  S        13.8723487987        5.7179452960       14.9033407563
  N        13.6424635630        6.0784543823       16.4580797448
  C        13.2481520473        8.2979573604       17.7424927665
  H        13.1581159220       10.3998232217       18.4404046270
  C        19.7487718236       15.3407658612       -3.5398499026
  N        19.6487540840       16.6558987839       -3.5380853770
  O        18.9703152728       18.3792949293       -2.1985318428
  H         8.9116192284       14.6678059812       11.0687165564
  H         9.2101169131       14.8986214072        9.3151761785
  C         8.1686977196       13.2172256895        9.7691113893
  H        21.8297097615       13.6352909843       14.7954497892
  H        21.3351331470       14.3352930152       13.3127710841
  C        20.8035054387       15.6170181713       15.1688863342
  C        12.9877438862        7.5713918744       18.9227998669
  S        20.2049721815       14.6125731849       -4.9839450702
  C        19.4984218811       17.5256052360       -4.7263166449
  H         8.4929971420       12.4716437748        9.0597469440
  H         7.8268685562       12.8406770908       10.7516501722
  C         6.9143663626       13.7703700743        9.1084543163
  H        21.2458770213       15.4687877609       16.2385658597
  H        19.7775253699       15.9723557618       15.2112043645
  C        21.6883701030       16.6462283146       14.6396006167
  H        13.0560234273        6.5088933920       18.7930337776
  C        12.4281978943        8.0013711714       20.1260142070
  H        20.1631573466       17.2086512985       -5.5460125696
  H        19.7810834250       18.5520899734       -4.4481700678
  C        17.9981372471       17.5225245557       -5.2378390956
  H         6.7624246654       13.1916113212        8.1892553386
  H         6.9542565153       14.7732546826        8.8037198415
  C         5.6760515867       13.6709694527        9.9513456750
  H        21.6645196935       17.5131352306       15.2941696460
  H        22.7200872484       16.2964614102       14.7533087829
  C        21.4868538924       17.2158825499       13.2592034274
  S        12.1119228864        9.6803436363       20.5596863704
  C        12.1849434131        6.9419869223       21.1613541007
  H        17.8726088660       18.4515079383       -5.7718249351
  H        17.2628457500       17.3643392624       -4.4819888454
  H        17.8313451965       16.8284192777       -6.0207071900
  H         5.5383643233       14.4829258338       10.6760174771
  H         4.8147339764       13.6360801512        9.2692847724
  H         5.7159552527       12.7189934608       10.4804079284
  H        20.3261018262       17.2792900235       13.0656969047
  H        21.7627841748       18.1961358661       13.1650071071
  H        21.8959086673       16.6585374806       12.4371005664
  C        11.5763303043        8.9497095206       22.0692811436
  N        11.6269736957        7.5966786371       22.1887631426
  O        12.3725652807        5.7428431207       20.9444413336
  S        11.3291250928        9.7855485699       23.5195805384
  C        11.3336542443        6.7767251179       23.3812512188
  H        11.0403834206        5.7992730654       22.9488689278
  H        10.4426893644        7.0879462250       23.9633387383
  C        12.5598707195        6.4036320160       24.2356421841
  H        13.3486476880        6.1458868388       23.5236819003
  H        12.2057556477        5.5736387208       24.8383373626
  H        12.8228556961        7.2361935584       24.9379585708
