352
 i =    43700, time =    43700.000, E =        25.4436394322
  H        12.2570018259        6.5666844208       32.0879488404
  C        11.3368405104        5.9658098134       32.3151010044
  H        11.6201674221        4.9438282613       32.3953736687
  C        10.4869911897        6.2011372702       30.9974509210
  C        10.6654946789        6.2727647111       33.6570750252
  C        11.2297062799        5.8684037716       29.6591146510
  H         9.5342655744        5.6543393150       31.0457319980
  H        10.2484634298        7.2730660797       31.0030811793
  H        11.3436656091        6.7548506411       34.4019737746
  H         9.8331826688        6.9561210398       33.3900746169
  H        10.2887958820        5.2759990571       34.0885281955
  C        10.3926843216        5.3406811283       28.4646794319
  H        11.8980879602        5.0038839082       29.9932769385
  H        11.7451365778        6.7355072425       29.4321885350
  C        10.9853059430        5.6426253812       27.0688083303
  H        10.3891751597        4.2816994844       28.5125991398
  H         9.4059888551        5.8045930957       28.5313889534
  C        10.1130434961        5.0865193085       25.9610223221
  H        11.9321033041        5.0603425404       27.0438870972
  H        11.1429849188        6.6771400838       26.8292177212
  C         8.7502744821        5.8106758794       25.8023311589
  H        10.5742861735        5.1288256294       25.0848240290
  H         9.9143493283        4.0064389844       26.1711676632
  C         7.6721182521        5.0392487734       25.1242503852
  H         8.1459462985        5.9748033708       26.7288269884
  H         8.8747244339        6.6631103671       25.2835282376
  C         7.2841158638        3.7429619324       25.8469708315
  C         8.0460883015        4.3620865682       23.9032361075
  C         6.3772324468        5.8682608436       24.9017759203
  C         7.4297266610        2.6516794241       25.0231919131
  C         6.7629536195        3.4344302227       27.0956306630
  C         7.9683016973        2.9733508876       23.7779998759
  C         8.2246341148        5.0429538825       22.7315476072
  H         6.6122564940        6.6940100973       24.2169014860
  H         6.1600687409        6.3235698416       25.8963084049
  C         5.1294522007        5.0642272031       24.4346026903
  S         6.9439330277        1.1788976734       25.8584265521
  C         6.5355270470        2.0710476939       27.2359225743
  H         6.6050750141        4.2192676513       27.8155559184
  C         8.3053981524        2.3721403378       22.6398036069
  H         8.2623533196        6.1482638021       22.8799315300
  C         8.5498766035        4.5076720052       21.5419140634
  H         5.2986621030        4.5871289382       23.4690061893
  H         4.9624840682        4.1994428645       25.0700438256
  C         3.9458083748        5.9623396132       24.2350007038
  C         6.1062731402        1.3959668340       28.4464461779
  C         8.5655816531        3.1058947306       21.4607764468
  H         8.4284506246        1.3140090723       22.4825307960
  C         8.8829175424        4.8763335030       20.2509855799
  H         3.2142107513        5.3111526797       23.7691002519
  H         4.1083586178        6.8354694810       23.6658630319
  C         3.3348026112        6.4149703785       25.4998378391
  C         5.9652040849       -0.0123722523       28.6976509784
  C         5.6364532273        2.2054938686       29.5657260204
  C         8.7859018911        2.3880476685       20.1868930674
  C         9.0286573054        3.7262656870       19.4648795690
  S         9.0760995666        6.3353611758       19.4530762407
  H         2.6359464918        7.1910091725       25.3695256318
  H         4.1300513864        6.7422303086       26.1876219350
  C         2.7026479325        5.1768183019       26.1830740622
  N         6.1229428720       -1.0222802019       27.6932754506
  C         5.5930478393       -0.5444944611       29.9016302131
  C         5.2540796715        1.6736167252       30.8140259228
  H         5.4689286235        3.2512058676       29.3925370700
  C         7.5073322339        1.5995691694       19.5870385241
  C        10.0869220253        1.6083986407       20.1082326155
  C         9.3324557267        4.0699364801       18.1554382326
  C         9.4071322764        5.4672586019       17.9949014048
  H         2.0206871713        4.6331239498       25.5348856654
  H         3.5953440483        4.4951758271       26.3986926226
  C         2.0682592825        5.4918526011       27.4448978449
  S         6.0195826482       -2.4935282117       28.3636211236
  N         5.7263118694       -1.9533942583       29.8726617800
  C         5.3454971378        0.2578058798       31.0401376339
  H         4.8255087116        2.3325228070       31.4995658069
  H         7.2282343509        0.6774943276       20.1763369550
  H         7.7837617058        1.2820845215       18.5452701514
  C         6.2011969348        2.3167757375       19.5285442879
  H        10.3562119461        1.2022609144       19.1164943502
  H        10.0317536056        0.7258457558       20.7396182837
  C        11.3159059297        2.3386568395       20.7152042470
  H         9.3572713966        3.3243102903       17.3882614271
  C         9.8261628014        6.1517037953       16.7219499116
  H         1.4211510741        4.5926218967       27.6149446435
  H         1.4256586518        6.3667985370       27.3598654470
  C         2.9671858725        5.5194129148       28.6157511387
  C         5.1661575021       -0.4323397118       32.3179488089
  H         6.3440829030        3.3300353712       19.0677865642
  H         5.8336225332        2.3567416993       20.5437587980
  C         5.2891900846        1.6929396331       18.4668810422
  H        11.0210595757        2.5632964233       21.6948763772
  H        11.5370834528        3.2307842584       20.1805716817
  C        12.5363823200        1.3999413195       20.7403640300
  C         9.9796218091        7.5361595552       16.5933477343
  C        10.2393528737        5.4000997206       15.5303930659
  H         3.7823442345        4.7067567658       28.6055658673
  H         3.4615267994        6.5099107829       28.5109859153
  C         2.2338985257        5.5307269098       30.0049546471
  H         5.1973020888       -1.5002794890       32.3363543005
  C         4.9345934622       -0.0482923160       33.6033858932
  H         5.3672354727        0.6038319738       18.5103702702
  H         5.5162400296        2.0406429185       17.5165919030
  C         3.7719239720        1.9529814149       18.7740592121
  H        12.5106665304        0.8766147070       21.6597818808
  H        12.6025623172        0.7245893894       19.9622548978
  C        13.8028133396        2.2429909760       20.5379905811
  N         9.6024759939        8.4881863226       17.5163600103
  C        10.3600245148        8.1119680517       15.4065834971
  C        10.6269671824        5.9923453636       14.3057435920
  H        10.0921110537        4.2933194903       15.5988555698
  H         2.0759165908        4.5287834594       30.4117206568
  H         2.8070284169        6.0023124323       30.8126942800
  H         1.2417078904        5.8766171960       30.0750827578
  S         4.6947947659        1.5811870396       34.1486390982
  C         4.7215493524       -1.0497584236       34.6786868281
  H         3.7185150202        2.6526600375       19.6377405761
  H         3.3900221978        2.5831484347       17.9722370810
  C         2.9239831534        0.7618088459       19.0348724143
  H        13.6430197921        2.8758113348       19.6462266309
  H        14.7021093337        1.6309991736       20.4434312965
  C        14.0879111128        3.0111655671       21.8584754648
  S         9.8942643845        9.8943201712       16.9893813335
  N        10.4455129344        9.4580592453       15.5269381224
  C        10.6466914590        7.4302667044       14.1925698330
  H        10.8210485459        5.3522467749       13.3912470491
  C         4.3642229352        0.8778801579       35.7453473105
  N         4.3148221137       -0.4528899788       35.7800149722
  O         4.6536643316       -2.2514339212       34.4803765054
  H         1.9381067079        1.1541026164       19.3077030213
  H         3.2394419112        0.1253603346       19.8635405639
  C         2.6281728748        0.0022725270       17.7281059179
  H        14.7109433299        3.8427532485       21.7654571974
  H        13.2151542187        3.3377964263       22.3676180214
  C        14.7787812373        2.0787609253       22.8569638583
  C        10.8985394926        8.1918133811       13.0282878188
  S         3.9581761267        1.8518143835       37.2471478221
  C         4.2600875281       -1.1361518597       37.1207122326
  H         1.6630159279        0.2410897584       17.2465246352
  H         3.3196579232        0.5115445585       17.0054707496
  C         2.8395705059       -1.5476874939       17.7888045026
  H        14.6039425320        1.0386023981       22.9331154013
  H        14.3911640749        2.3415312670       23.8075343687
  C        16.2850602036        2.3988950071       23.1196473947
  H        10.4959629685        9.1840072188       13.0466346646
  C        11.5020480486        7.9218942192       11.8272679354
  H         3.4593353690       -0.6401778316       37.7593689750
  H         3.7807307015       -2.1284626418       36.9350539187
  C         5.7096797218       -1.1100755709       37.6739544067
  H         2.5757822027       -2.0308634940       18.7589364000
  H         3.8756654622       -1.7201515784       17.4424923511
  C         1.8913401780       -2.2723539166       16.7825861417
  H        16.3864014819        3.4690027916       23.4199457796
  H        16.4986830347        1.9064803067       24.0456917073
  C        17.3078568934        2.0014819599       22.0023785609
  S        12.4760340511        6.5873014794       11.5555743492
  C        11.5471700320        8.9582942239       10.7838214290
  H         5.8680183913       -0.2383523834       38.3041745745
  H         5.8200264740       -2.1103224996       38.1727511057
  H         6.4393290763       -1.1772076268       36.9214660920
  H         2.5091811060       -3.1017705608       16.3537127988
  H         1.6436333267       -1.6070442326       15.9116325525
  H         0.9794769034       -2.6067980272       17.2808264523
  H        18.2913649369        2.3391116219       22.2868339297
  H        17.0701473167        2.5064769063       21.0778717408
  H        17.4044539204        0.9255814381       21.7360814451
  C        12.7879794202        7.3180697473        9.9886414114
  N        12.4136096605        8.6252257459        9.8567823732
  O        10.9326474412       10.0007647763       10.9218645427
  S        14.0162447808        6.7055229894        8.9183860206
  C        12.6134032079        9.4208094616        8.6577926063
  H        12.7634076579       10.5383248270        8.8516421944
  H        13.4978596996        9.1942577647        8.2265960205
  C        11.4075728319        9.0285134280        7.7041557219
  H        11.5724855226        8.0334528377        7.2971626181
  H        10.4913759365        8.9057339281        8.2528687327
  H        11.1676735555        9.7858923476        6.9780571769
  H        21.0423630116       11.2631044728        3.4687267958
  C        21.7381592120       10.4233850004        3.5963647392
  H        21.1919916619        9.4933062275        3.8104078208
  C        22.6968334701       10.7035664208        4.7007795874
  C        22.4992121859       10.2405304099        2.2154819836
  C        22.2372132305       10.6578266202        6.1256801234
  H        23.6149492009       10.0867080961        4.5625670642
  H        23.0940530611       11.7512007526        4.5043016225
  H        22.9745771373        9.2822428254        2.1148800148
  H        23.2632430698       10.9737540183        2.1627798247
  H        21.7498551241       10.3171111877        1.3943713704
  C        21.4004392866        9.4215952680        6.5922953242
  H        23.0751569182       10.7821275476        6.8750295976
  H        21.5497498969       11.5005980378        6.0835904984
  C        20.6044436546        9.7875741181        7.7922598628
  H        22.1993719479        8.7585706401        6.8843584115
  H        20.7710214781        9.0680250081        5.7643937797
  C        19.3304958154       10.6669628081        7.5612516808
  H        21.2641570913       10.3028330714        8.4518519268
  H        20.3089184539        8.8522007769        8.3171847134
  C        18.1346160019        9.8492346759        6.8780212247
  H        19.0207046326       11.0863223034        8.4762563440
  H        19.6546059547       11.4411544950        6.9361560314
  C        16.8437485002       10.6768825007        6.7153411888
  H        17.9111510841        8.9424263357        7.3644472914
  H        18.5442011367        9.6059756420        5.9010731369
  C        17.1334053529       12.0363505875        6.0614803395
  C        16.4002187486       11.3276636513        7.9294235227
  C        15.6546752607        9.9803359701        5.8985697700
  C        16.9215514270       13.0594846365        6.8775446418
  C        17.6543790369       12.4123955854        4.8625460016
  C        16.3663185764       12.6515303037        8.0489261801
  C        15.9520766112       10.5950659548        9.0318118227
  H        16.0370505466        9.6571640715        4.9315258277
  H        15.4580292165        9.0734237032        6.4325441403
  C        14.4609439301       10.8801856493        5.6514396880
  S        17.2465301167       14.5547733293        6.2067525077
  C        17.8020028964       13.7383671288        4.7610566115
  H        17.7744580933       11.6542468750        4.1422821717
  C        15.8978086404       13.2079836940        9.2110627718
  H        15.8619470580        9.5488702665        8.8757707810
  C        15.5233505230       11.1676525461       10.2294199400
  H        14.7030131580       11.7143726316        5.0065403239
  H        14.0940639729       11.2208380201        6.5689922189
  C        13.2594036105       10.1663510384        4.9899132220
  C        18.1037022425       14.4267154396        3.4273449702
  C        15.5160312672       12.5114979345       10.3613120924
  H        16.0026183958       14.3209638819        9.3020424691
  C        15.0695458209       10.7268200743       11.4682638032
  H        12.4050163769       10.8234977285        5.1785443392
  H        13.0018194359        9.2718967274        5.5397403587
  C        13.3746582370        9.9988728042        3.4227980033
  C        17.9532974830       15.8181688488        3.2253495346
  C        18.5522077518       13.5957281965        2.2934501249
  C        15.0266269763       13.2174320343       11.5956657609
  C        14.8062982186       11.7791071849       12.3450855599
  S        14.7262157620        9.2111505025       12.2821445527
  H        13.9292804623        9.0987466874        3.1298940570
  H        13.8507767121       10.8530386047        2.9827140756
  C        12.0258842543       10.1670985542        2.7665229372
  N        17.5415030325       16.7128850571        4.1986917602
  C        18.2420790301       16.3860757451        2.0165501104
  C        18.8650717107       14.1929471167        1.0867010875
  H        18.7563569445       12.5387891870        2.4604598372
  C        13.6667676291       13.9337574555       11.3977236298
  C        16.0412804054       14.0938669653       12.3972336895
  C        14.3592110593       11.3483658540       13.5649611907
  C        14.3070719057        9.9856344318       13.7561529115
  H        11.1773568756        9.6577945340        3.3142076924
  H        11.6325359334       11.1709006483        2.8866206036
  C        11.9749202216        9.7863562802        1.3245079282
  S        17.5114545526       18.1970002279        3.5368828280
  N        18.0427033363       17.7594192559        2.0253145712
  C        18.6242840184       15.6926777225        0.7920857083
  H        19.3014062081       13.5953248366        0.2882172269
  H        13.8839975305       14.7825930423       10.7991772656
  H        13.3303973236       14.3756490164       12.3633636351
  C        12.5040488005       13.1663503098       10.7653410961
  H        16.3346436799       15.0493462918       11.9607723836
  H        15.5671058698       14.4969428056       13.3404133222
  C        17.3599510312       13.3488922601       12.6682859389
  H        14.0670033988       12.0811809823       14.2755748459
  C        13.9545446907        9.3532743834       15.0570928534
  H        11.0865030569       10.2693192930        0.8502165597
  H        11.9578047043        8.7534337027        1.2698149124
  C        13.1645346040       10.2102125957        0.3931693438
  C        18.8880412918       16.4171031592       -0.3944189679
  H        12.8846739205       12.6240586911        9.8635193615
  H        12.1558733177       12.3479595174       11.4149191664
  C        11.2440205950       14.0571889163       10.4510624386
  H        17.8664791436       12.8668491426       11.7916490202
  H        17.2649289425       12.4583658057       13.3027635592
  C        18.3755240009       14.3439252078       13.1910014541
  C        13.9484972445        7.9439987331       15.3425949393
  C        13.7176220231       10.2376991353       16.2124658747
  H        13.6964863740       11.0650657809        0.7013768146
  H        13.9388490101        9.4109248734        0.4111397511
  C        12.8021439132       10.5010610279       -1.0601133063
  H        18.7199359934       17.4182161246       -0.4141020542
  C        19.2545734442       15.9874552978       -1.6701505570
  H        11.5612207213       14.8730152990        9.8457707964
  H        10.9395176926       14.5639248104       11.4151343427
  C        10.0364929622       13.3102942920        9.8288294248
  H        18.4989060027       15.2907800896       12.5619878369
  H        17.9152121305       14.7270443200       14.0702330441
  C        19.6008774748       13.6548148793       13.6415709177
  N        14.1983624805        6.9588334886       14.4414459004
  C        13.5202241941        7.4361899834       16.5791353734
  C        13.2688551462        9.7088910092       17.4401000618
  H        13.8890175476       11.2959046423       16.1034155662
  H        13.1694700420       11.4925688831       -1.2504338250
  H        11.7636968601       10.5426483726       -1.3112138434
  H        13.3616788496        9.8757763862       -1.7509276499
  S        19.4792916898       14.3292394634       -2.2120183655
  C        19.3986817551       16.9776642585       -2.7928958582
  H        10.2555399085       12.7875978912        8.8858786118
  H         9.7594340957       12.5386898338       10.4902298399
  C         8.8612865657       14.2504778211        9.7622776786
  H        19.7125468987       12.9845399485       12.7796801508
  H        19.5501005397       13.0144020020       14.4854506523
  C        20.7943896562       14.6415920546       13.8782117462
  S        14.0555689160        5.4911402504       15.1346629757
  N        13.4875421360        6.0585706182       16.6105714467
  C        13.1365570325        8.2588033171       17.6184494019
  H        13.2232141047       10.2708258367       18.3309069127
  C        19.9101752033       15.0220690629       -3.7840385380
  N        19.9275997276       16.3740810726       -3.8856575087
  O        19.1886019549       18.1962442737       -2.5592922327
  H         8.4849862814       14.7146714382       10.7118724713
  H         9.1941793360       15.0701743182        9.1496932307
  C         7.8057867115       13.3984482937        9.0197636734
  H        21.6301575843       14.0502322664       14.2997861000
  H        21.1874777518       14.9511337827       12.9021798559
  C        20.4738067833       15.9040549848       14.7115714270
  C        12.7540208329        7.7078527817       18.8382291826
  S        20.6335743823       14.1088060517       -5.1265141598
  C        19.9783552903       17.1839650947       -5.1838764662
  H         8.1182583681       13.1225785209        8.0363889647
  H         7.6305842786       12.5371428271        9.6137723231
  C         6.5332369315       14.2100274375        9.0294403990
  H        20.4765455871       15.6688154695       15.7426699861
  H        19.4869347493       16.3321461225       14.5217317655
  C        21.4398173535       16.9834536305       14.2864780296
  H        13.0293108773        6.6947227581       18.9432226062
  C        12.2784613087        8.2134426047       19.9932749750
  H        20.7848613720       16.7379735154       -5.7953474339
  H        20.2652979528       18.2307623504       -4.9260471052
  C        18.5874824811       17.0414199801       -5.9137001045
  H         5.8027891755       13.8105178424        8.2702861518
  H         6.7708233609       15.2626183919        8.7816020050
  C         5.8185270781       14.3460405442       10.3518377226
  H        22.4683821311       16.6595289749       14.0986486689
  H        21.0836854876       17.5297997644       13.3768025746
  C        21.4993789741       18.0894192092       15.3370755315
  S        11.6233343224        9.8286507018       20.1949244999
  C        12.1010435521        7.2712776565       21.1250233453
  H        18.7702197886       16.5576870870       -6.8887950480
  H        18.0621575514       18.0031324671       -6.1382872318
  H        17.7629375276       16.4667709211       -5.5059802017
  H         6.3056606084       15.1556399644       10.9263023141
  H         4.7219737408       14.4964362165       10.2495389699
  H         5.9433593352       13.5487873868       11.1095473589
  H        22.2474683941       17.8218324106       16.1229392769
  H        21.7244230473       19.0570700618       14.8308306905
  H        20.5023783335       18.3115390372       15.6886430072
  C        11.4126886384        9.3339504724       21.9114787801
  N        11.5031074764        8.0279869483       22.1116439693
  O        12.3972294969        6.0815471065       21.1029805246
  S        10.7250402656       10.2782843823       23.1804127360
  C        11.3080740246        7.4027431956       23.4407398852
  H        11.2164030125        6.3322209142       23.4932718432
  H        10.3762763705        7.6031978132       23.9158967849
  C        12.5507995294        7.6718439973       24.2864809752
  H        13.4074678058        6.8898302826       24.0902439642
  H        12.3828996316        7.7607464566       25.3250465695
  H        13.0046626414        8.6381949663       23.9849445586
