352
 i =    52800, time =    52800.000, E =        24.4615025463
  H        12.2845603576        5.5396643895       31.9654608961
  C        11.1863322960        5.7181286641       32.1121422172
  H        10.6028769716        4.7885287196       32.1629405242
  C        10.7734176287        6.5968321057       30.9357474237
  C        11.1129940032        6.3723637607       33.4773487758
  C        11.1616863210        5.9590567047       29.6096024570
  H         9.6712613531        6.8062728352       30.9647593623
  H        11.2285130823        7.5713227580       31.0261054931
  H        10.1416486696        6.6719615471       33.8132807002
  H        11.5819754919        5.7985063502       34.2999440661
  H        11.7098690344        7.2615585426       33.5967988127
  C        10.0370002633        5.8763738398       28.5537854197
  H        11.5103507729        4.8836652616       29.8276869983
  H        12.1095296428        6.3517927514       29.2298534745
  C        10.5994358664        5.7089603322       27.1581503567
  H         9.1798710255        5.1950264979       28.7365339750
  H         9.5206893014        6.8422849566       28.5661183589
  C         9.6617032017        5.0743648669       26.1901290264
  H        11.4277240347        5.0373399177       27.1629487812
  H        11.0042598749        6.6324809547       26.8256516819
  C         8.3552314356        5.9155407479       25.9318743022
  H        10.2364086899        4.8503859992       25.2392049101
  H         9.3565608970        4.1609203947       26.5991363974
  C         7.2411198849        5.1215552396       25.2667962638
  H         7.9199616177        6.2552630599       26.8907942898
  H         8.4826289668        6.8338736863       25.2940674012
  C         6.8693649618        3.7521328428       25.8627333171
  C         7.6364598359        4.4654599046       24.0397426493
  C         5.9580708387        6.0366036302       25.1267850518
  C         7.0635247123        2.6474969673       25.0203208451
  C         6.2737749687        3.3732396710       27.0458904048
  C         7.6803565042        3.0848013748       23.8573638549
  C         8.0807670009        5.1732101243       22.9132482553
  H         6.2200567882        6.8940886336       24.4885296552
  H         5.6375779600        6.5321480550       26.0056069798
  C         4.7330694661        5.3162178064       24.5328283090
  S         6.7988830166        1.1288940411       25.8604356371
  C         6.2922161556        2.0173015616       27.2656696564
  H         5.9631615540        4.1319819951       27.6950029362
  C         8.1605130198        2.5504511572       22.7660756500
  H         8.1210799039        6.2126308881       22.9788234309
  C         8.3981410735        4.5883211966       21.7722099853
  H         5.1391380541        5.3128781212       23.4863732065
  H         4.5089053865        4.2991432762       24.8595650034
  C         3.4344071629        6.2377668377       24.4280626545
  C         5.8388968578        1.3924361745       28.5498327149
  C         8.4799041925        3.2419586521       21.6270104090
  H         8.1965331564        1.5172498947       22.6980861575
  C         8.8797160864        4.9850133848       20.5310654805
  H         2.8842089665        5.5505510948       23.7746776741
  H         3.6175011713        7.2502776075       23.9631635432
  C         2.8387869958        6.3171292230       25.8169896758
  C         5.7996600123        0.0266677499       28.8662507178
  C         5.4020267851        2.2625481224       29.7065477655
  C         9.0288214527        2.5582063482       20.2920951344
  C         9.2027356590        3.9241365400       19.6403271299
  S         9.1964342461        6.5188543099       19.7863025112
  H         2.1924116798        7.1009454812       25.5836528264
  H         3.6557888541        6.7404308295       26.3932765284
  C         2.3452077356        5.0222303413       26.5064246391
  N         5.9121850677       -0.9750869904       27.9300427520
  C         5.5743221658       -0.4545296868       30.1297152514
  C         5.1341308651        1.7616939850       31.0010235563
  H         5.4186023686        3.3338937144       29.5302941289
  C         7.9330601115        1.7935254963       19.5520637846
  C        10.2943789115        1.7338239770       20.5277409758
  C         9.5800148390        4.3931047771       18.3383545434
  C         9.6098241279        5.7499099291       18.2637044652
  H         1.8423758573        4.3207206794       25.7626753101
  H         3.2702747703        4.5094682789       26.8475821990
  C         1.4469893092        5.3285765935       27.7306034018
  S         5.9778698576       -2.4209960203       28.6233521047
  N         5.6586164965       -1.8970910750       30.1345003296
  C         5.2187796309        0.3294733122       31.2345143965
  H         4.8127039354        2.5006217497       31.7167276730
  H         7.8033107221        0.9433075194       20.2996077212
  H         8.5264209402        1.4265051688       18.6827307362
  C         6.6846578368        2.5742561667       19.1051934253
  H        10.6440924365        1.4946846953       19.5525564766
  H        10.1976366100        0.7734625638       21.1472112102
  C        11.3901329013        2.5380442812       21.1525496794
  H         9.7733046799        3.7295561203       17.5805937450
  C         9.9227931682        6.5238053620       16.9650539631
  H         0.6809203991        4.6149353126       27.9282163975
  H         1.0521337066        6.2990286284       27.4713069080
  C         2.1544178995        5.5058963560       29.1278205986
  C         4.9978880187       -0.2801139656       32.5186804286
  H         6.8347633284        3.4357739540       18.4952965445
  H         6.1598363790        3.0037338569       20.0369883473
  C         5.7543747037        1.6794233557       18.3213298279
  H        11.1633119399        2.9011595698       22.1738761888
  H        11.5127136904        3.4766103857       20.5218873804
  C        12.6902876934        1.7193389846       21.1619102534
  C        10.0970455119        7.9304211780       16.8289603639
  C        10.1853558912        5.7679690084       15.7210274036
  H         2.7578199680        4.5431740905       29.2307158972
  H         2.9408741555        6.2459084403       29.1729668726
  C         1.1198308337        5.7631231226       30.2174241338
  H         5.2273113685       -1.3060068548       32.4884917983
  C         4.7088137661        0.2750330971       33.7551151466
  H         5.3956333005        0.8887500645       18.9348868177
  H         6.3563057540        1.2680294981       17.4995543546
  C         4.6025497315        2.3882707853       17.5372397602
  H        12.6816136818        1.0565273347       22.0121340739
  H        12.6784335382        1.0762131300       20.2628056268
  C        13.9388068407        2.4984767580       21.0997124455
  N        10.0342446854        8.8109368913       17.9117624288
  C        10.4509667377        8.5503577933       15.6841316368
  C        10.3413155038        6.4481623610       14.5122840195
  H        10.2127572583        4.7109170113       15.7798994323
  H         1.6269790686        5.8212563276       31.1830903813
  H         0.5898289562        6.7037864488       30.0099333267
  H         0.4742709612        4.9014304677       30.2601690258
  S         4.2944433637        1.8823913985       34.1317632466
  C         4.6571250677       -0.6501745176       34.9406480316
  H         4.4551836366        3.3644746542       18.0781707458
  H         4.8424369600        2.5512483663       16.4367037300
  C         3.2282626492        1.6825476348       17.6585257539
  H        13.7110560105        3.4857350025       20.7239314436
  H        14.6485091376        1.9137480638       20.5626117884
  C        14.6539374859        2.6346579777       22.3827473629
  S        10.5025260221       10.2826530044       17.3871204909
  N        10.7183922532        9.9191598058       15.9038994475
  C        10.6016933800        7.8874737593       14.4304945957
  H        10.3057331997        5.9573374799       13.6156324406
  C         4.3568135493        1.3673988362       35.7980804524
  N         4.3806125780        0.0252076773       36.0123746506
  O         4.9202698206       -1.8393046762       34.8101049355
  H         2.5213518605        2.3212882616       17.1529475853
  H         2.9515440050        1.6072062885       18.6589874629
  C         3.1103762825        0.3681217731       16.9514750881
  H        15.2302307853        3.4989724197       22.1993716164
  H        13.8963766619        2.9669641981       23.0588242937
  C        15.4572956269        1.4889745320       22.9978446612
  C        10.8381996682        8.6630853648       13.2622890796
  S         4.0847603691        2.3626650764       37.2327556437
  C         4.4391892740       -0.5388772456       37.3706590753
  H         2.5650403899        0.3615114705       16.0064178711
  H         4.1864539316        0.0937823854       16.8236455314
  C         2.4639178170       -0.6665284660       17.7320035098
  H        15.6082330245        0.7468418605       22.2184556246
  H        14.9168707454        1.0688154742       23.8268849397
  C        16.7574134034        1.9796356308       23.6617878286
  H        10.5876135698        9.6840840645       13.4901064339
  C        11.3711671817        8.3768002869       12.0232375911
  H         3.8846592059        0.0056050316       38.0536936295
  H         3.9719653346       -1.5239237311       37.3633183256
  C         5.8566534648       -0.4875404300       37.8223210810
  H         1.4127014492       -0.4036020224       17.9867227042
  H         2.9091947312       -0.8153873382       18.7262625832
  C         2.3722530329       -1.8677451167       16.8544205444
  H        16.4695836343        2.9813676152       24.1096117838
  H        16.9790118645        1.3090124046       24.5037376447
  C        17.9448584314        2.0780734970       22.6900192810
  S        11.8091154179        6.8497249733       11.4750884628
  C        11.6544087042        9.4637009575       11.0313402733
  H         6.2507166742        0.4569579186       38.0319197326
  H         5.9580748876       -1.0099311036       38.7406840277
  H         6.6084759017       -0.9182477806       37.1542535668
  H         1.7294741756       -1.6996123595       15.9486715560
  H         2.0579238661       -2.7967968638       17.3123657877
  H         3.3187928873       -1.9687047409       16.3312601808
  H        17.7755594315        1.7639141898       21.6726562066
  H        18.8291361916        1.5505570493       23.0557775898
  H        18.4444861916        2.9971023884       22.6713451408
  C        12.2559450999        7.5942368187       10.0159470937
  N        12.1359403092        8.9303975111        9.9075970665
  O        11.3380812860       10.6330793439       11.3339868170
  S        13.0066080262        6.7957472319        8.6134140317
  C        12.2732751818        9.6687636273        8.7150198434
  H        12.2499578891       10.7640175448        8.9122796437
  H        13.2056635051        9.4806386520        8.2140993774
  C        11.0644494030        9.4118212497        7.7640336211
  H        10.2537002647        8.7909168917        8.1988057669
  H        10.5977028274       10.3461856670        7.6981346907
  H        11.2847194703        9.1209646930        6.7617045235
  H        24.5150891492       10.7616253714        3.8216279447
  C        23.4688419661       11.0476407247        4.0942690536
  H        23.2778909272       12.0534365504        3.7991018413
  C        23.3567416226       10.8463827494        5.6082158022
  C        22.4775954551       10.2331956098        3.3042267630
  C        22.0034760623       11.0648968999        6.2799936837
  H        23.6511720350        9.8614370132        5.7709551175
  H        24.1194219641       11.4420739935        6.1337491243
  H        21.6219957147       10.0443093868        3.9178328147
  H        22.8040295676        9.2479252044        2.9706757703
  H        22.1756742156       10.8424036753        2.4146032661
  C        21.3027476415        9.7693135056        6.7860437342
  H        22.1077946831       11.7595581277        7.1181458999
  H        21.3162202180       11.4449485938        5.5618143425
  C        20.2113841752        9.9092805635        7.8930860677
  H        22.0747145400        9.0852669864        7.2559979986
  H        20.7816846196        9.2919184740        5.9600500085
  C        19.0233866126       10.8067197392        7.5465970645
  H        20.6624285543       10.4123627431        8.8586123763
  H        19.9539202379        8.9422575375        8.2900898254
  C        17.8798395966       10.1520194040        6.9400190514
  H        18.6303545631       11.1760903764        8.4648129863
  H        19.2479962259       11.6090355479        6.8319569885
  C        16.6319277802       11.0405851087        6.7036413515
  H        17.5363525981        9.3475872762        7.5593392532
  H        18.2627105673        9.8035964346        5.9559269464
  C        17.0648014139       12.3894348323        6.0065884902
  C        16.1285683684       11.7926362568        7.9080560131
  C        15.5518966603       10.3226624161        5.8739220299
  C        16.6274718065       13.4989311978        6.7096132462
  C        17.6439276616       12.6882242878        4.7713863588
  C        16.2012550797       13.0891152548        8.0017590636
  C        15.7139179697       11.1284590665        9.0296913612
  H        15.9917043189       10.0869025321        4.9671021803
  H        15.1659861905        9.4247172654        6.3872302632
  C        14.3054901982       11.2350584466        5.6018713053
  S        17.0465010195       14.9039543344        5.9155618413
  C        17.6510375522       14.0356240213        4.6026618587
  H        17.9694004977       11.9522076942        4.0920658471
  C        15.8586264715       13.7217361643        9.1859965148
  H        15.7295775737       10.0131757560        9.0036716299
  C        15.3246527393       11.7578570819       10.1875625666
  H        14.5577193148       12.2505135095        5.2548687099
  H        13.7772028901       11.4896888263        6.5537806895
  C        13.2325770468       10.5046313669        4.7411254128
  C        18.0368023840       14.6778428582        3.3397241439
  C        15.3397700282       13.0805011335       10.3182367596
  H        15.9970987584       14.7941743077        9.3190331685
  C        14.8846004988       11.3530134193       11.4262138441
  H        12.3174241254       11.1648206739        4.7461385942
  H        13.0133565043        9.4548786378        5.0221294652
  C        13.6442708356       10.4343996634        3.2701377119
  C        18.1087246079       16.0674896049        3.1379173842
  C        18.3067523699       13.8206207040        2.1134474377
  C        14.8472003316       13.7878380494       11.6020570433
  C        14.6568510011       12.3816477347       12.2943118004
  S        14.5974889803        9.8550756846       12.1457217465
  H        14.4400616958        9.7555690768        3.0648203263
  H        13.8977737579       11.3962828260        2.8857711592
  C        12.4999245912        9.9841112207        2.4327024140
  N        17.8431869626       17.0258941562        4.1055929840
  C        18.3536739781       16.6308809262        1.8969511045
  C        18.6030298500       14.4408944712        0.9097529104
  H        18.1344307593       12.7569355421        2.1927366644
  C        13.6181928984       14.6209734482       11.4595379801
  C        15.9755999936       14.5316248654       12.3707999386
  C        14.2691932432       11.9297314610       13.6005215087
  C        14.2130119255       10.5777257472       13.7007910475
  H        11.8402740279        9.3254564843        3.0351015502
  H        11.8238706623       10.7611015659        2.1089360461
  C        12.8413458096        9.3198387953        1.1285272640
  S        17.9038485087       18.4958185743        3.4363886762
  N        18.2558891182       17.9998028067        1.9103280091
  C        18.6202615329       15.8915497170        0.7094250244
  H        18.6108101782       13.7607936118        0.0400928795
  H        13.7740204837       15.4824355733       10.6966075068
  H        13.4671609903       15.2142447090       12.3717158008
  C        12.3831742863       13.7385977381       11.2281494795
  H        16.5059375832       15.3862901777       11.8584504798
  H        15.5601550740       14.8842646482       13.2992646564
  C        17.2196764228       13.6090637099       12.6274697094
  H        14.1603319269       12.6101819413       14.4158773155
  C        13.9834675328        9.8050974632       14.9610560326
  H        11.8781265278        8.9631349290        0.7844149161
  H        13.4150055325        8.4487046327        1.3245028659
  C        13.5819546227       10.1426394053        0.1095721468
  C        18.8188326365       16.5558923265       -0.5332054154
  H        12.6484949334       13.0699946250       10.4205833660
  H        12.2127689706       13.0813509277       12.1355395300
  C        11.1250506112       14.5238609191       10.8186624682
  H        17.6849670855       13.3133069242       11.7587197415
  H        16.9482472929       12.6192696060       13.0711595335
  C        18.2189051903       14.4048247784       13.4968012140
  C        14.0900740426        8.4083491551       15.1437087971
  C        13.8455979726       10.6675278859       16.2284590432
  H        13.8436676427       11.1361582663        0.5726957890
  H        14.5289504508        9.7063174507       -0.0873778322
  C        12.8677018648       10.4818279125       -1.1789013023
  H        18.6602445338       17.5767008400       -0.4606399507
  C        19.0970552396       16.1789417029       -1.8245602658
  H        11.4312335156       15.3293882747       10.1848214047
  H        10.6397669544       14.9567255847       11.6452161830
  C        10.1339920946       13.5175673421       10.2706796383
  H        18.3425117550       15.4374162353       13.0127037081
  H        17.7336100777       14.4582155561       14.4389922687
  C        19.6349262679       13.6939382247       13.6224170280
  N        14.3507259223        7.4625046876       14.1572422153
  C        13.8504645828        7.8185183329       16.3768000089
  C        13.6959022382        9.9969294840       17.4691745099
  H        13.8588361989       11.7001838300       16.1615708476
  H        11.8599564689       10.0755037367       -1.2630678231
  H        13.3109844140        9.9580861535       -2.0227265155
  H        12.7429269224       11.5310165063       -1.4396842647
  S        19.5490925792       14.5904683882       -2.3093376897
  C        19.1395657097       17.1581377908       -2.9061891582
  H        10.5271742512       12.8788515345        9.5309686251
  H         9.7274947752       12.8693708025       11.0050864501
  C         8.9247214194       14.3073884013        9.6696711422
  H        19.8993095182       13.0414203006       12.8293618994
  H        19.6478870529       13.0782632495       14.4956581350
  C        20.8711818114       14.5902947615       13.6736919059
  S        14.2655068381        5.9727226519       14.8526160233
  N        13.9821231531        6.4361481303       16.3886224932
  C        13.5898120918        8.4977389379       17.5572809852
  H        13.7031920800       10.6113912035       18.3377558627
  C        19.7599576062       15.3117400134       -3.9215375708
  N        19.5100311274       16.5745127605       -4.0698387460
  O        18.9632864397       18.3788435288       -2.6919770033
  H         8.4119489589       14.8951113197       10.5198406942
  H         9.1897978984       14.9453505010        8.8448978655
  C         7.8310055011       13.4094943734        9.1699119091
  H        21.7913807539       14.0226228668       13.4592986681
  H        20.7165747079       15.4075947426       12.9470858083
  C        20.9383015525       15.2909517432       15.0872360618
  C        13.3689430573        7.7952073835       18.7894412180
  S        20.2229893436       14.4636554832       -5.4274367651
  C        19.4924266635       17.2451214407       -5.3981276020
  H         8.3042467258       12.7028583564        8.4354698462
  H         7.4991845579       12.7655833978       10.0334293390
  C         6.7124669968       14.1056756280        8.4113607134
  H        21.2542996536       14.5596377925       15.8017216461
  H        19.9456916920       15.5406639448       15.3497276620
  C        21.8371869774       16.5074631610       15.2510274309
  H        13.7434550081        6.7779013228       18.7845595257
  C        12.8097391930        8.0844731380       20.0230416114
  H        20.3506774979       17.1550462496       -6.1113055658
  H        19.5176335534       18.2926708377       -5.1613129731
  C        18.1036709011       17.1123407331       -6.0648225791
  H         6.5634609960       13.4243246006        7.5707483003
  H         7.0717255889       15.0666676348        8.1900583195
  C         5.4068934656       14.0994599446        9.2819371852
  H        21.2838951714       17.2578582660       15.8568703908
  H        22.7405170396       16.2802776151       15.8643543791
  C        22.5534243922       16.9858802424       13.9950787558
  S        12.1987771607        9.6655510662       20.4593714375
  C        12.5882015220        6.9575532228       20.9823189239
  H        17.4936994365       16.3288280272       -5.7386231116
  H        18.4368309657       16.9619754724       -7.0588473531
  H        17.6033660676       18.0621369887       -6.0051721483
  H         5.5615166371       14.5533539758       10.2461530135
  H         4.5155936639       14.7150298403        9.0077264539
  H         5.0064902395       13.1024319258        9.6419947996
  H        23.3501774005       16.2113491269       13.8496770131
  H        21.9300203070       17.2023988793       13.1075188136
  H        23.1194504131       17.9587579218       14.2300470581
  C        11.7454976416        8.8131409668       21.9221985646
  N        11.9811430866        7.5379037207       22.0400913715
  O        12.8855463975        5.8013222538       20.9064077200
  S        11.0942733680        9.7087962681       23.3221870118
  C        11.6945762005        6.7550037463       23.3198079938
  H        11.5992362445        5.6813064288       23.0207720837
  H        10.7774196670        7.1013698248       23.7876576305
  C        12.8446715789        6.8075623553       24.2626567114
  H        13.0583637499        5.7903576048       24.6014884077
  H        12.6964692622        7.4793204942       25.1103092879
  H        13.6898646329        7.3367732643       23.9189589041
