352
 i =    92500, time =    92500.000, E =        25.2279544919
  H        10.1423923114        6.7120606741       31.2065649155
  C        11.1032249319        6.6448906630       31.6463004649
  H        11.5240675687        7.6252720780       31.8512537250
  C        12.2832189623        6.0963165584       30.7561286125
  C        10.8015543394        5.9053001629       32.9644227694
  C        11.7359232939        5.2617103750       29.5373622327
  H        12.8043563791        6.9618352505       30.3817312445
  H        12.9907681446        5.6066671934       31.3804526057
  H        11.5164691560        6.0300137380       33.7372543649
  H         9.8643315060        6.0740992514       33.4547089627
  H        10.7603828456        4.7994434068       32.7563407632
  C        10.7574074531        5.9922817351       28.5562829158
  H        11.2058283545        4.4015206384       29.9511061195
  H        12.6414401775        4.9967349356       28.9896317646
  C        10.8077454563        5.7076266710       27.0327521384
  H         9.7521244692        5.8333047781       28.9166303542
  H        10.9670373254        7.0787290814       28.6871013614
  C         9.6735304286        4.8229819970       26.4631064338
  H        11.7271947950        5.0716191274       27.0272234127
  H        10.9488842150        6.6427239532       26.4282042689
  C         8.3526437341        5.6322558742       26.2454070434
  H        10.0305466015        4.4523791242       25.4218134688
  H         9.4844898639        3.9880393720       27.1525518862
  C         7.2549852972        4.9265426291       25.4887215144
  H         7.9553199216        6.0659751650       27.1773159394
  H         8.5637388083        6.4411559257       25.5339194287
  C         6.9320402862        3.6078086671       26.2316732030
  C         7.8051613008        4.1782388184       24.3501081951
  C         6.0054679320        5.7547369394       25.1487764603
  C         7.2221635034        2.5075738291       25.4491418498
  C         6.3995886725        3.2418727640       27.5037318628
  C         7.7412587048        2.8570048660       24.2342810586
  C         8.3103402753        4.8384637345       23.2453158729
  H         5.4110597960        5.1248674111       24.4675499074
  H         6.2766972551        6.5992106138       24.5256274572
  C         5.1235545796        6.2590103990       26.2625472460
  S         6.8995777656        0.9928272781       26.2582083885
  C         6.2848652381        1.8897240621       27.6668769225
  H         6.1220854481        4.0581855689       28.1179259401
  C         8.1739101145        2.1880057057       23.1293189138
  H         8.3334962608        5.9371340615       23.4170618315
  C         8.6750671959        4.1746677054       22.0961672506
  H         5.4225815935        5.8042081572       27.2142311272
  H         5.2877627079        7.3166808323       26.4221610137
  C         3.5639828756        5.9845656511       26.0038054668
  C         5.9533667016        1.1999882174       29.0017338890
  C         8.6372612555        2.8529148349       21.9915216778
  H         8.0304848353        1.1656553254       23.0996712654
  C         9.1185588083        4.5746615888       20.8605421401
  H         3.3910857133        5.0078227184       25.5019897651
  H         3.3033875120        6.6409452177       25.1725273991
  C         2.7437048315        6.1987957060       27.2698792561
  C         6.1872160261       -0.1345130218       29.3302659138
  C         5.7841821826        2.0053019113       30.2420297638
  C         9.0249073421        2.1377023068       20.7137024521
  C         9.3585888776        3.4697950789       20.1006403236
  S         9.4027749934        6.0686520266       20.0858299171
  H         1.8920624688        6.9149500879       27.1817780951
  H         3.3200917793        6.5492883761       28.1232792047
  C         2.1766070369        4.8844074168       27.6155883045
  N         6.5148983533       -1.0548834796       28.3991786315
  C         5.9213469016       -0.6998155746       30.5392701695
  C         5.4891896418        1.5008880914       31.4575835642
  H         5.8074455759        3.0596168211       30.1912286268
  C         7.8711927953        1.3801975214       20.0316620261
  C        10.3434813654        1.3159000038       20.8677183380
  C         9.8164951152        3.8758353195       18.8045555690
  C         9.9198166184        5.2377531324       18.6801125628
  H         1.4680670619        4.7814448235       26.7897291146
  H         3.0053956526        4.1517551085       27.5332002726
  C         1.3862400933        4.8398514467       28.9379756273
  S         6.5536728632       -2.5493360287       29.0360837582
  N         6.3193027889       -2.0157113721       30.5619329415
  C         5.5229458194        0.0020519740       31.7234652478
  H         5.1351308149        2.1705852589       32.2250101972
  H         7.5922547896        0.4098338032       20.6231433877
  H         8.1075061400        0.9525042558       19.0358703428
  C         6.6422050210        2.2197198917       19.7157987624
  H        10.6634013820        0.8404053170       19.9065834005
  H        10.1954390011        0.4968588225       21.5917323991
  C        11.5608038374        2.1801974867       21.3406681621
  H        10.0533740979        3.1483670337       18.1360602575
  C        10.3674900860        6.0241080566       17.4925861322
  H         1.1181237832        3.8553974034       29.2503804503
  H         0.4815470358        5.3810816433       28.7026133937
  C         1.9425198726        5.4099568590       30.2251307432
  C         5.2660564056       -0.6922818351       32.9142848523
  H         6.8009455421        2.9565084518       19.0260350232
  H         6.3309286395        2.8252753310       20.6338019730
  C         5.4195817659        1.4881517695       19.0936182984
  H        11.2834306321        2.6193337798       22.3081704278
  H        11.9190924111        2.8450923179       20.5889159353
  C        12.8352777538        1.3680626125       21.5042489535
  C        10.3304562252        7.4474966454       17.3997648169
  C        10.5624543658        5.3502452007       16.1914039649
  H         2.0506522735        6.5312904358       30.0422132954
  H         1.2202703345        5.1888829937       30.9664158193
  C         3.2745290736        4.8146551002       30.5220815509
  H         5.3871886710       -1.6978345487       32.9111896788
  C         4.9482950119       -0.2432727699       34.1790782526
  H         5.1690772768        0.6063849983       19.7326810868
  H         5.7310320207        0.9836380916       18.1675467910
  C         4.1096222803        2.2560703884       18.9859586493
  H        12.6504807252        0.5099671356       22.1198963974
  H        13.0366130909        0.9689591786       20.5659503496
  C        14.1476525412        2.1127799652       21.8499410224
  N        10.0700205432        8.3277952669       18.4961455776
  C        10.5240200704        8.1559891154       16.1996204046
  C        10.6288132006        6.0840251741       15.0352271851
  H        10.7087200441        4.2945981032       16.2171531703
  H         3.9226527973        5.5287148025       31.0012326092
  H         3.1458569941        3.9415971594       31.1790600595
  H         3.7529709294        4.5053795095       29.5928434296
  S         4.4992998746        1.3259504531       34.5934774757
  C         4.8417959135       -1.2273404412       35.2924393684
  H         4.1508223384        3.0791240887       19.7367548464
  H         3.8918256119        2.6383553868       18.0299852053
  C         2.8115184460        1.4551056912       19.2156266974
  H        13.7331629218        3.0825311491       22.2850931653
  H        14.6646344159        2.3427306025       20.9037197214
  C        15.0964975654        1.4401767131       22.8469894993
  S        10.2556394640        9.8979064346       17.9201685266
  N        10.5272553215        9.5454728944       16.3935479378
  C        10.7307229304        7.5661752931       14.9596776751
  H        10.7673609496        5.5637349296       14.1339697299
  C         4.2574545670        0.6575269910       36.2257426659
  N         4.4161067181       -0.6626761967       36.4676079473
  O         5.1646039943       -2.4174420055       35.1530887291
  H         1.9938472980        2.1503642448       19.3081163248
  H         2.8576416963        0.9846163464       20.1691081782
  C         2.6660841937        0.4094446523       18.1520208689
  H        14.5437145935        1.0633703195       23.6747174575
  H        15.4071580181        0.6076576155       22.3132552135
  C        16.1806406360        2.3725552752       23.3809747327
  C        11.1225756592        8.3277847728       13.8321858507
  S         3.7108592007        1.5941325139       37.6233131574
  C         4.6131824686       -1.3733932787       37.7347768005
  H         2.3745835190        0.8483861017       17.1468134705
  H         3.6691264043        0.0282950472       17.8837373462
  C         1.7340447054       -0.7259732202       18.4401402332
  H        15.7992147822        3.1115573232       24.0828635415
  H        16.7104999283        3.0610842681       22.7071348382
  C        17.3048502354        1.7403247384       24.1543730694
  H        10.9266524318        9.3366797796       13.9942279652
  C        11.5572543414        8.0374306421       12.5523889853
  H         4.1183685261       -0.9126921094       38.6011623396
  H         4.1939236926       -2.3626291064       37.5208341691
  C         6.0865656989       -1.6493075981       38.0651984801
  H         0.6879035497       -0.4468202312       18.4966097500
  H         2.0047229763       -1.2790058355       19.2630863250
  C         1.7990304143       -1.5987438565       17.1380245874
  H        17.5862795985        2.4506357470       24.9657425446
  H        17.0011018767        0.7814024739       24.5487193462
  C        18.4855475563        1.4427421592       23.1360614662
  S        11.9910924004        6.5799573059       11.8521902561
  C        11.5678695938        9.2580953289       11.6280445663
  H         6.8512189191       -1.3602336675       37.3444093912
  H         6.5191616535       -1.1850527900       38.9588887478
  H         6.1471033274       -2.7551887981       38.0374531232
  H         2.8508944156       -1.7748345584       16.8618299848
  H         1.3186461828       -1.1862208589       16.1943788535
  H         1.4260547568       -2.6128437980       17.2880571863
  H        19.3476986592        0.9183247140       23.5004366646
  H        18.8666535937        2.4016962965       22.7100089825
  H        18.1160448705        0.8872023473       22.2807414179
  C        12.3518112466        7.4956273604       10.3582406831
  N        12.0384492536        8.8249949402       10.4202507488
  O        11.3985042977       10.4044140663       11.9763677859
  S        12.9998207633        6.6549446691        8.8763867179
  C        12.0969569434        9.6131485084        9.1884203829
  H        12.2628133341       10.7078321858        9.4123473321
  H        12.8486684741        9.3263117507        8.4465983715
  C        10.8031239670        9.4451233282        8.4042616699
  H        10.3606559609       10.3773846267        8.0989549027
  H        10.9169686405        8.9405440145        7.4348746295
  H        10.1045729042        8.9885879141        9.0712601682
  H        21.1895058787       11.0497330194        3.4827787079
  C        21.7355098402       10.1649729941        3.4260518481
  H        21.0792758183        9.3323721689        3.5266063977
  C        22.7120643799       10.2437590646        4.5733161119
  C        22.4881192082       10.0945770477        2.1773371232
  C        22.0839777097       10.2488559936        6.0405645934
  H        23.4177834169        9.4705508481        4.4892948264
  H        23.3069339390       11.1662562722        4.4912996797
  H        23.1943913004        9.3016701330        2.1655829105
  H        22.9706223450       11.0091541604        1.8980199679
  H        21.7507393274        9.8275770813        1.3830951900
  C        21.5783363649        8.8735313248        6.4999272884
  H        22.9574702901       10.6335634228        6.5989953912
  H        21.3979936642       11.0585702361        6.1937695098
  C        20.3210065332        8.9172590039        7.2896401289
  H        22.3653737968        8.4030837470        7.0771487105
  H        21.3755892377        8.2089683516        5.7058440711
  C        19.1368020982        9.5362540279        6.5836780649
  H        20.5111893415        9.4480180857        8.1866128521
  H        20.0901063100        7.8800129374        7.5731602001
  C        17.9405095415        9.5343960532        7.5397150834
  H        19.3367572826       10.5250331443        6.2712832132
  H        18.9301578565        8.9320030278        5.6581990630
  C        16.7357277545       10.4139043343        7.2176184832
  H        18.3283789350        9.6967456794        8.5953429282
  H        17.6440190381        8.4562114255        7.4829103987
  C        17.1784515409       11.7544750872        6.4728944096
  C        16.2931988112       11.1188535576        8.4134544144
  C        15.5829310126        9.5887821162        6.5365209611
  C        16.7820482527       12.8185489273        7.3063551751
  C        17.7930268078       12.1209996296        5.2620853192
  C        16.3536021103       12.4364202384        8.5052847383
  C        15.8300874867       10.4541126099        9.5057358328
  H        16.0020207622        9.1185664519        5.6658432786
  H        15.2474826731        8.8069502564        7.1906784982
  C        14.3406424052       10.4760653492        6.1771080467
  S        17.0692258594       14.2741499625        6.5597686370
  C        17.7743983748       13.4996879099        5.1623116257
  H        18.0791892425       11.3196575964        4.5317514074
  C        16.0261290298       13.0139648997        9.6879729187
  H        15.8009055953        9.3863073002        9.5074993207
  C        15.4675603042       10.9900861669       10.6734887526
  H        14.7005206905       11.3537688663        5.6776447971
  H        13.7109829706       10.6980802108        7.0835897346
  C        13.3882110172        9.9708381406        5.0961981077
  C        18.2464816237       14.2476861926        3.9392508795
  C        15.5950265135       12.3582053299       10.8260269469
  H        16.0483674298       14.0851740116        9.7528977110
  C        15.0866217973       10.5608903888       11.8989164189
  H        12.6821786260       10.7705270333        5.0229511557
  H        12.8176681552        9.0976505273        5.3880125774
  C        13.8912666223        9.7691703674        3.6636292036
  C        18.1851764177       15.6487826722        3.7455958175
  C        18.5283225073       13.4332594213        2.7229456268
  C        15.2541602590       13.0259444637       12.0983722003
  C        14.9390180504       11.6182946029       12.7678325527
  S        14.7499386071        9.0243245562       12.6651614140
  H        14.3630728111        8.7532369897        3.6294211325
  H        14.6985961758       10.4857491753        3.2665821395
  C        12.7527722518        9.8372778773        2.6464682924
  N        18.1819501435       16.5546242174        4.7534838219
  C        18.4573122925       16.2355222402        2.4866629071
  C        18.8585069822       14.0157090091        1.4782845100
  H        18.3550562308       12.3595682092        2.7269443085
  C        14.0704745726       13.9387115922       11.8500684980
  C        16.4549595437       13.8036054905       12.7488061434
  C        14.5791536947       11.2435345965       14.0283359763
  C        14.4142426297        9.8877353044       14.1083901375
  H        12.0693239995        8.9917509902        2.7687553446
  H        12.1587707970       10.7116151792        2.9592298420
  C        13.3437575451       10.0612824981        1.2664461169
  S        18.0881715045       18.0497101419        4.0706988430
  N        18.4136009710       17.6510944102        2.5213106729
  C        18.8372517394       15.4850161580        1.3275903463
  H        19.0064944972       13.3765003642        0.5813670161
  H        14.3489251614       14.8709646431       11.4311764618
  H        13.6465197389       14.2685693818       12.7935869919
  C        12.8790039157       13.3149602661       11.0517857006
  H        16.7205482522       14.6027502474       12.0684816248
  H        16.0017886491       14.3391934217       13.5835084775
  C        17.6586081665       12.9969595172       13.0804164885
  H        14.5612139671       11.9709716878       14.8686473734
  C        14.1632898589        9.0731139311       15.3240670523
  H        14.1277828797        9.3237491414        1.1043839529
  H        13.8595244382       10.9966020379        1.2835718460
  C        12.3242489603        9.8821861519        0.0949160819
  C        19.0667616451       16.2327361336        0.1132263337
  H        12.9343081296       13.6232509803        9.9980339398
  H        12.8836687871       12.2455403595       11.1435499906
  C        11.5191242050       13.8820356099       11.4592588056
  H        18.0637861479       12.5277901374       12.1797012927
  H        17.4437882166       12.2501697538       13.7621058700
  C        18.8050663066       13.9730850436       13.4869779196
  C        14.0080585021        7.7244748135       15.5096595001
  C        13.8935055418        9.8469673908       16.5489706530
  H        12.2869662963        8.8139235248        0.1325899663
  H        11.3028174504       10.2606648652        0.2118643403
  C        12.7419317107       10.3996608444       -1.2523827367
  H        18.8271005332       17.2133327099        0.2296745374
  C        19.4113582625       15.8861538423       -1.1566430429
  H        11.5621111818       14.9438384128       11.3625270444
  H        11.1465536631       13.5422996678       12.3941485731
  C        10.4120441823       13.5584874000       10.5024808182
  H        19.1892646216       14.5313410829       12.6351358826
  H        18.4161242925       14.7542988356       14.0983098190
  C        19.9286272858       13.2799442007       14.3159502154
  N        14.1224156483        6.8217063427       14.4552708256
  C        13.6873791659        7.0899566711       16.6742843821
  C        13.6260377593        9.2507672465       17.7622233913
  H        13.8886585067       10.9614160313       16.5156390933
  H        13.1756726106       11.4143764202       -1.2112872999
  H        11.8869448319       10.5851178183       -1.9226694096
  H        13.3562542961        9.6107806674       -1.7163084886
  S        19.6238781715       14.3229929479       -1.6406846625
  C        19.5233943952       16.9648128337       -2.1852177064
  H        10.5285922185       14.2152812914        9.6342008461
  H        10.6388609097       12.5567857561       10.1039402484
  C         9.0261880598       13.5779358754       11.2691369737
  H        20.5045251700       12.6549744402       13.6730671386
  H        19.3773058152       12.6274855865       15.0678950437
  C        20.6376212612       14.4173617758       15.0952084735
  S        13.8714350470        5.3399923243       15.0293827792
  N        13.5185487132        5.7283036822       16.5444286106
  C        13.4559473024        7.8069437036       17.8679402096
  H        13.5680401233        9.9132924478       18.5931313957
  C        19.6594612481       15.0123455857       -3.2767779400
  N        19.7265235324       16.3444869197       -3.3353491260
  O        19.2142509730       18.1632881315       -2.0618066773
  H         9.0072166527       12.7550519681       11.9940236627
  H         8.8799207980       14.5748355515       11.8787443648
  C         7.8911082364       13.5353298259       10.2273956723
  H        19.8906235591       15.1738475119       15.4844079172
  H        21.2692347475       14.0425813148       15.9207929264
  C        21.6698449749       14.9532328267       14.1022940408
  C        13.1474481710        7.1482908137       19.0985562385
  S        20.0742166459       14.1103285531       -4.7333371707
  C        19.8173330121       17.1543310081       -4.5544765380
  H         7.5771693676       14.5273737649       10.2123073225
  H         8.2287434831       13.3686260426        9.2545858296
  C         6.7655475854       12.5741069241       10.6015925097
  H        21.5177400918       14.7159035992       13.0763540802
  H        22.6754958392       14.7045631204       14.3428027915
  C        21.6731175557       16.5151241282       14.0215524002
  H        12.7162471651        6.1535165048       18.9400879674
  C        12.7227706460        7.6255264079       20.3304520309
  H        20.4560453975       16.6488681060       -5.2571677134
  H        20.3661194823       18.0837370552       -4.2936584932
  C        18.4763900414       17.4050477472       -5.2623372187
  H         6.4282027607       12.5754344384       11.6918433508
  H         7.1353225724       11.5802597976       10.4702130621
  C         5.4855125531       12.7859474636        9.7804955759
  H        22.2635029135       16.7877969336       13.1239080456
  H        20.6685385467       16.9398070818       13.7711767107
  C        22.2008744722       17.2020019423       15.2194736006
  S        12.4723050052        9.2156116340       20.8690115007
  C        12.4295909450        6.5239731006       21.2257810055
  H        17.7954415392       16.6151883241       -5.1854704622
  H        18.5077679526       17.6476655034       -6.3191502595
  H        18.0183534217       18.2589921019       -4.8140344250
  H         4.8044799300       11.9569141834        9.9217373362
  H         5.0929065344       13.7381541443       10.2133341474
  H         5.6435559235       12.8609199748        8.7211767155
  H        21.6988046441       16.7626314513       16.0847517052
  H        23.2721133882       17.1828539750       15.2410751848
  H        21.9969455357       18.2891424891       15.1576848114
  C        11.9514123686        8.4378834905       22.3523474800
  N        11.9783710050        7.0848598874       22.3800924798
  O        12.5540369302        5.3113571045       21.0484960973
  S        11.7702732116        9.1883534900       23.8705241815
  C        11.8730140201        6.2339714999       23.6183035852
  H        11.4491021367        5.2739782468       23.4439799180
  H        11.1478907521        6.6285046893       24.3316212107
  C        13.2972022636        5.8733497929       24.2034216531
  H        13.2934122233        5.0976406216       24.9442767946
  H        13.6674613880        6.7914515117       24.6519409236
  H        13.9459970601        5.6107612674       23.3795513848
