352
 i =    58000, time =    58000.000, E =        25.3851125801
  H        10.5394877147        4.5872545249       31.6938937311
  C        10.7010511000        5.4273507085       32.2881592074
  H         9.7617935494        5.6569871730       32.7708724712
  C        11.2507431204        6.5641142467       31.4300050338
  C        11.7627699165        5.1195570519       33.3371528685
  C        11.7002295134        6.0737492572       30.0210293427
  H        10.4463786481        7.2694014275       31.2611834576
  H        12.0636162176        7.1313375657       31.9177779704
  H        12.6959767334        5.0669511115       32.8459330434
  H        11.7838697111        5.8032244777       34.1460910164
  H        11.5386062343        4.0985506565       33.6823169361
  C        10.4614920594        5.5892975843       29.2376705701
  H        12.3687778627        5.2354623239       30.1003253332
  H        12.2381061784        6.9109014552       29.4782684681
  C        10.6935652177        5.6269717384       27.7297601984
  H        10.2866365099        4.5506685290       29.4801259162
  H         9.5901674790        6.1592371441       29.5448962600
  C         9.6839624627        4.7329470861       27.0061068520
  H        11.6388687431        5.1784242946       27.5733458732
  H        10.8613202888        6.5937531993       27.4125693394
  C         8.6685929107        5.4841228911       26.2130714541
  H        10.0967208131        4.0587770528       26.2794363156
  H         9.1708819863        4.1529687059       27.8029371369
  C         7.5130722065        4.6863519565       25.4219519327
  H         8.2250228651        6.1811817603       26.9105471395
  H         9.2850270852        6.0137239232       25.4089766632
  C         7.1986192768        3.3616403213       26.0988827255
  C         7.8802598092        3.9821853163       24.1146402221
  C         6.3031161397        5.5344224157       25.2146357654
  C         7.3436359334        2.2586991630       25.2477891314
  C         6.7799742798        2.8889007230       27.3122189775
  C         7.7861620980        2.6459219208       23.9920766783
  C         8.4906570389        4.6640141307       23.0514995003
  H         5.8906580866        5.1341376319       24.2699624066
  H         6.5793330053        6.5641008261       24.9752570934
  C         5.1576268120        5.4333232626       26.2730459452
  S         6.9448132989        0.7891393553       26.0167897390
  C         6.5220269755        1.5673998818       27.4089517809
  H         6.6818292284        3.6536048501       28.0734303168
  C         8.1182594506        2.0597507036       22.7738079681
  H         8.7362402643        5.6863117914       23.2218725439
  C         8.7441516557        4.1087456232       21.8271532843
  H         4.9806711067        4.4601803628       26.6864650355
  H         5.5360592306        6.0328626028       27.1340484253
  C         3.9236500991        6.0420868906       25.6162941630
  C         6.0573510507        0.8282189848       28.6045927589
  C         8.6194897555        2.7785706187       21.6893774305
  H         7.9700571257        0.9966457962       22.5914255820
  C         9.1430804430        4.5293170319       20.5843345717
  H         3.6653477500        5.4068847678       24.8550859815
  H         4.1448372920        6.9895978039       25.0601538874
  C         2.6230910213        6.1538486972       26.4686738681
  C         6.0823707916       -0.5606294803       28.8791782037
  C         5.5200186086        1.6617093068       29.7096452527
  C         8.9460383608        2.1115148360       20.3419096863
  C         9.2269485758        3.4496001046       19.6771125382
  S         9.4692025607        6.0677950756       19.8785527194
  H         1.8455570064        6.6437177834       25.8618168506
  H         2.7164305301        6.9245212954       27.2607713348
  C         2.1227332176        4.7341974199       26.9479712648
  N         6.4771159914       -1.5723624092       27.8955728013
  C         5.6801995899       -1.1028055827       30.0537102335
  C         5.1543180530        1.1167656796       30.9471268104
  H         5.4508008437        2.7284769975       29.5765672939
  C         7.7184618876        1.3538576137       19.7499452416
  C        10.2426466012        1.2351858578       20.4631191368
  C         9.4021527031        3.9106437118       18.3691018212
  C         9.5298442977        5.3229472951       18.2954920173
  H         1.3240630525        4.4268515475       26.1763846307
  H         2.7980180750        3.9294287274       26.9712444713
  C         1.4428568323        4.6083405559       28.2821695797
  S         6.4274612501       -3.0850884650       28.5973255495
  N         5.9027347598       -2.5052035657       30.0563462961
  C         5.3152449562       -0.3529480851       31.1982916649
  H         4.6221392987        1.7553553377       31.6469611972
  H         7.3762083317        0.6191938482       20.4462943954
  H         8.1080392951        0.7473494487       18.9198984046
  C         6.4637733313        2.2420017734       19.4015820282
  H        10.4084977664        0.5180989766       19.6132461452
  H        10.1142227479        0.4807513361       21.2563812999
  C        11.4556186406        2.1633602658       20.8366228221
  H         9.5132870132        3.2075588973       17.5189316828
  C         9.9224101740        6.1207466739       17.1324379041
  H         1.0091378120        3.6139503069       28.3035263578
  H         0.6355073303        5.3091578590       28.4383888968
  C         2.4762324546        4.8526446086       29.3348776864
  C         5.1673652173       -0.9870941934       32.4891543839
  H         6.8234315100        3.0215421847       18.7009929319
  H         6.2216639931        2.7820282129       20.2862228192
  C         5.2579495754        1.5585439534       18.8236021416
  H        11.2665031957        2.7359404074       21.6842102488
  H        11.7239894848        2.9484864006       20.0985510200
  C        12.6517760594        1.2003429263       21.0576668336
  C        10.0374257019        7.5433752328       17.1227087395
  C        10.1139958688        5.5332935182       15.7700211071
  H         2.9488664900        3.9187111276       29.5735910889
  H         3.2600920205        5.5331846265       29.0328403715
  C         1.7644614179        5.5476831460       30.5633847077
  H         5.4009787577       -2.0048775248       32.4716133231
  C         4.8666146918       -0.5236642162       33.7691277178
  H         4.7944051839        0.8296881831       19.4850765908
  H         5.7685616357        1.1490844984       17.9372029638
  C         4.1623597242        2.5347763934       18.3207265452
  H        12.4933931328        0.6900885942       21.9467873643
  H        12.6848379028        0.4541028085       20.3002048853
  C        14.0769632762        1.8590304482       21.0087510312
  N         9.7717494403        8.4075836059       18.1666002765
  C        10.4156754715        8.2189521462       15.9331940454
  C        10.7968572499        6.1835203383       14.7077797683
  H        10.0215192759        4.4236282761       15.6326550585
  H         1.0555046943        4.8590688985       30.8672865731
  H         2.3644838927        5.7885160810       31.4745544910
  H         1.2177723503        6.4813743968       30.3291100494
  S         4.6420018210        1.1250755013       34.2587218184
  C         4.9453582786       -1.5140980500       34.8603034760
  H         4.1314238350        3.3371807987       19.0649176612
  H         4.3373203006        3.0472786051       17.4088310191
  C         2.8108758149        1.8555609046       18.1152948381
  H        13.9644328417        2.7940484833       20.4977963553
  H        14.7720858641        1.2635083799       20.4710214402
  C        14.5379062858        1.9834795281       22.4205193849
  S         9.8578335081        9.8972804098       17.5234561472
  N        10.2863227370        9.6063879003       16.0147098352
  C        10.8833281556        7.6542647965       14.7304070290
  H        11.1034248006        5.5818818798       13.8970194038
  C         4.3737581636        0.3537796759       35.8517330315
  N         4.5468872577       -0.9294990104       35.9465527885
  O         5.0917528901       -2.7092288930       34.7707174636
  H         2.1652581962        2.6839799045       17.7661860688
  H         2.2437802925        1.7630947072       19.0946236803
  C         2.7543065457        0.5933580640       17.3052948999
  H        13.9262054876        2.5007675076       23.1811441135
  H        14.5403244499        0.9309693501       22.8332535586
  C        15.9722413877        2.5285054794       22.5386103202
  C        11.0724638853        8.5089632284       13.6369817772
  S         4.0243456044        1.2242217057       37.3308358580
  C         4.4299993944       -1.7177754967       37.2040852278
  H         1.9390663246        0.6942029451       16.6220846786
  H         3.6862120234        0.5437465064       16.6516089318
  C         2.7165352230       -0.7197998823       18.1523436937
  H        16.1681989293        2.8204375935       23.5524497862
  H        16.0337038336        3.4728786223       22.0129254083
  C        17.0790132799        1.5236510368       22.0988638235
  H        11.1399839120        9.5260084375       13.8902316432
  C        11.4654257816        8.2525736516       12.3554956089
  H         3.7392296706       -1.2523090984       37.8421404684
  H         3.9377359745       -2.6349350875       37.0465745694
  C         5.7256409676       -1.8117334062       37.9378714423
  H         2.1806365093       -0.4900871783       19.0534449509
  H         3.7771186142       -0.8658114717       18.3773831403
  C         2.0251706552       -1.7628680746       17.3201685472
  H        16.9697314162        0.6040579418       22.6008449671
  H        16.9585957010        1.3888815210       21.0372295243
  C        18.5349434202        2.0748522477       22.4261424153
  S        11.8956757869        6.7361599358       11.6556332456
  C        11.5681481279        9.3928488681       11.3809851453
  H         6.2768488743       -0.8821359860       37.8200286831
  H         5.5153169913       -1.9518470778       39.0162779161
  H         6.3748195214       -2.6017653897       37.5506251495
  H         2.3755428947       -1.8018602355       16.3200068705
  H         0.9096700685       -1.6549910991       17.2341705167
  H         2.2274806999       -2.7836124255       17.6588525111
  H        18.5921284606        3.1840970332       22.2778374361
  H        19.3563198795        1.6282899056       21.9839277560
  H        18.6023053131        1.8927397575       23.5001010205
  C        12.2414941792        7.5623076346       10.1652654781
  N        12.0577629925        8.9112141589       10.1922288839
  O        11.3891668143       10.5765534173       11.6473514127
  S        12.7868983286        6.8274671388        8.7027155450
  C        12.3061462656        9.7251150262        8.9946301645
  H        12.6477304541       10.7011618413        9.3150298786
  H        13.1708622110        9.4023936502        8.3530354542
  C        10.9612391758        9.9184090711        8.3007416276
  H        11.0589343380       10.8242662714        7.6558217041
  H        10.7213923080        9.1135676123        7.5847881820
  H        10.0487109024        9.9648962132        8.9693457362
  H        21.3705806405        8.8127362366        3.4568623378
  C        21.9781447795        9.6771791769        3.3854569998
  H        22.7511452136        9.4435320282        2.6965305684
  C        22.6876430938       10.0676078253        4.6891581930
  C        21.1548701137       10.8525667087        2.7350170189
  C        21.7082260321       10.4578703316        5.7809224065
  H        23.2677858172        9.2791032025        5.0137449682
  H        23.3130161051       10.9040020467        4.5152581222
  H        20.5855049870       11.3595952042        3.4492064505
  H        20.5954360417       10.5671797959        1.8549402796
  H        21.7135844268       11.6420019017        2.3400940400
  C        20.6032540094        9.3833766778        6.1587639817
  H        22.2375572782       10.7903749530        6.7015269167
  H        21.1704997203       11.3688649028        5.5378587305
  C        19.9912798844        9.4770052938        7.5711600931
  H        21.1196140830        8.3561136553        6.1195375817
  H        19.8306763478        9.3625544837        5.3795402097
  C        18.8788890497       10.4860769621        7.5048813943
  H        20.6964898938        9.5994148036        8.3298036079
  H        19.5290503071        8.4914854590        7.7189274609
  C        17.5637924748        9.7245157259        7.1641687890
  H        18.7324869717       10.9954905196        8.4612640961
  H        19.0953696761       11.3208356999        6.8428988139
  C        16.4163434064       10.7024066703        6.9880188675
  H        17.3510800392        8.9398186755        7.8930273005
  H        17.7033311056        9.1241227900        6.3057582005
  C        16.8267670303       12.0457745208        6.3574922220
  C        16.0655452466       11.4410094045        8.2471968977
  C        15.2817008462       10.0768979006        6.1660528659
  C        16.6933444272       13.1368208395        7.2255332219
  C        17.4101987457       12.4244024983        5.1602069983
  C        16.2019213140       12.7578479868        8.4450246236
  C        15.6285518731       10.6528615697        9.3393915059
  H        15.7444278137        9.7885530900        5.1949785967
  H        14.8966881420        9.2194426446        6.6534058305
  C        14.0629566215       10.9830371342        5.7553282892
  S        17.2549150954       14.6564076700        6.5371204194
  C        17.7345442925       13.7711470417        5.0683670138
  H        17.6860041526       11.7446319280        4.4049106142
  C        15.9052773414       13.3807930296        9.6253838234
  H        15.4827628629        9.6458016078        9.2063816413
  C        15.2393814832       11.2641921632       10.4738179998
  H        14.3094116133       11.8676975509        5.1710799448
  H        13.5782266649       11.3539351627        6.6343459716
  C        13.0599195847       10.2473275757        4.8690951791
  C        18.2262921662       14.5080192660        3.7959571877
  C        15.3881448727       12.6423822457       10.6881122599
  H        16.0149506650       14.4675703460        9.8109303435
  C        14.8284809573       10.8238693404       11.7450160542
  H        12.1459077949       10.3704695788        5.3872034086
  H        13.3760066977        9.1570032378        4.9644869356
  C        13.1101316386       10.6699829307        3.4915761465
  C        18.1316565738       15.8721491832        3.5097760576
  C        18.6489977593       13.6425045693        2.6527231220
  C        15.0366907207       13.3038774580       12.0098860624
  C        14.6930504688       11.9229787279       12.6684258530
  S        14.5352157581        9.2976525799       12.6529965820
  H        14.0918217754       10.4928508079        3.1490292578
  H        13.0357380252       11.8156075865        3.3813682001
  C        12.1325873742        9.9820675842        2.6144722227
  N        17.8469251168       16.9098865400        4.4909216092
  C        18.3678673284       16.4211724676        2.2405638654
  C        18.8425828402       14.1409286379        1.3483950135
  H        18.8330750307       12.6239561011        2.7607431767
  C        13.8115560140       14.2571347478       11.8983435477
  C        16.3308433253       14.0159867254       12.5291995842
  C        14.3344105249       11.4892817866       13.9776887967
  C        14.3238120746       10.1364005601       14.1289207151
  H        11.5106181350        9.3541846651        3.1811352116
  H        11.5434848930       10.7734975092        2.2329845515
  C        12.7397148685        9.1946917210        1.5154581494
  S        17.7717458540       18.3728570992        3.7382054571
  N        18.2521220034       17.8112803998        2.2883437790
  C        18.6841273084       15.6060991648        1.1105532808
  H        19.2108968682       13.5222047178        0.5456070061
  H        14.1035319496       15.0740570216       11.2030480378
  H        13.7762441424       14.8130865572       12.8546407292
  C        12.5523194908       13.4543881260       11.4952844772
  H        16.3641448679       15.0345472621       12.0668524754
  H        15.9814680448       14.1881335073       13.4775973278
  C        17.7031005209       13.3889221779       12.5295655364
  H        14.1087487189       12.2916616969       14.6723921777
  C        14.1207970244        9.3228701225       15.3014514283
  H        11.9061522557        8.6572363567        1.0062215859
  H        13.3307838728        8.4048578770        1.9706350147
  C        13.5609306574        9.9708175076        0.4596144201
  C        18.9176353797       16.3031461910       -0.1030096150
  H        12.8018247108       12.8345673334       10.6496972554
  H        12.2227716315       12.7315998020       12.2828554531
  C        11.4426166587       14.3456304343       11.1173937782
  H        18.0496347173       13.1804813703       11.4998610909
  H        17.6188874486       12.4234714008       13.1008526918
  C        18.6629376155       14.3535043644       13.2603094829
  C        14.0069536553        7.9696085947       15.4404339546
  C        13.9013159005       10.0537407085       16.5948097350
  H        14.1339988450       10.7776157931        0.9456203050
  H        14.3511214837        9.3344731784        0.0886671183
  C        12.5858719441       10.4361549252       -0.7057196553
  H        18.8409266120       17.4009723901       -0.0392730436
  C        19.1499173756       15.9019237476       -1.3455146020
  H        11.8823792270       15.0440665779       10.4853526970
  H        11.0334356375       15.0224586231       11.9145179209
  C        10.3930712816       13.5482754200       10.3733285646
  H        18.8310547774       15.2646533606       12.6352005358
  H        18.1426998703       14.6770432792       14.1716698711
  C        19.9566981868       13.6535777731       13.5666404629
  N        13.9280341791        7.0222909088       14.3391368862
  C        13.7028456198        7.3458812829       16.6050816796
  C        13.6009911221        9.4323882661       17.7662827397
  H        13.9146632664       11.1274409681       16.5156117601
  H        12.0195003969       11.2879641796       -0.3714918647
  H        11.9447951146        9.5198812811       -0.8744118932
  H        13.1698536601       10.6917318420       -1.5917188689
  S        19.4086304579       14.3202925660       -1.8948065684
  C        19.1473508109       16.9744863854       -2.4164307321
  H        10.9730522438       12.8411564514        9.7758864725
  H         9.7306303333       12.9915797108       11.0660246153
  C         9.5984050114       14.4432564162        9.3510750105
  H        20.1971982029       13.0345416261       12.6886679911
  H        19.8425995642       12.9158777943       14.3363739803
  C        21.1666180614       14.5850517470       13.7107999269
  S        13.8290968183        5.5364457439       14.9485002093
  N        13.4837207906        5.9556187969       16.4966796983
  C        13.5983272656        8.0029491947       17.8710340697
  H        13.5938405107        9.9237654113       18.6297433784
  C        19.5480369376       15.1097449998       -3.5126377543
  N        19.3478152251       16.4300275689       -3.6317181472
  O        18.9561046388       18.1724544593       -2.2104967312
  H         9.1324663804       15.2844512870        9.9661830464
  H        10.1945394556       14.9219660040        8.5281658465
  C         8.4814314840       13.6515576468        8.6471377607
  H        21.8985944320       14.0150000407       13.1385382654
  H        20.9041277752       15.4865405584       13.0673322412
  C        21.5866594028       14.8680491310       15.1436579565
  C        13.2412441986        7.2243280627       19.0381987921
  S        19.7306856132       14.1285577895       -4.9235876616
  C        19.1290449892       17.2527456309       -4.8375733571
  H         8.4717234979       13.6626165808        7.5807737888
  H         8.5571120217       12.6320145771        8.9391181451
  C         7.0608448377       14.0559704242        9.0004382714
  H        22.5632172042       14.4198615690       15.3545040275
  H        20.8886336004       14.4578592154       15.8199810392
  C        21.4973324435       16.3773787477       15.5353817949
  H        13.6947735458        6.2643056200       18.9468087679
  C        12.6453336475        7.5206138154       20.2480462891
  H        19.8330325809       16.8007058691       -5.4666879529
  H        19.4525956266       18.2865991470       -4.6769413305
  C        17.6764926245       17.2778718693       -5.2757708565
  H         6.3097702035       13.5115348508        8.4864979225
  H         6.9955543684       15.0540481596        8.6387241112
  C         6.7020232006       13.8987806972       10.4750827903
  H        20.4787402535       16.6332648175       15.4501650909
  H        21.6729591714       16.5122865475       16.5862650239
  C        22.3680095519       17.2680256878       14.7121283833
  S        12.1053509011        9.0589425988       20.7979765656
  C        12.5670460256        6.3510107585       21.1749673055
  H        17.5560812953       18.2375877661       -5.7508453129
  H        17.0356770950       17.1834553915       -4.3717352482
  H        17.4679960720       16.4582350346       -6.0072265680
  H         6.2989554270       14.7468868302       10.8295568195
  H         6.0465058341       13.1085765254       10.7324363611
  H         7.6304525282       13.8519016275       11.0626309316
  H        21.9233799143       17.4917958796       13.7540772945
  H        22.4386337959       18.1840828052       15.3631393492
  H        23.3579329031       16.7303257354       14.6238905497
  C        11.7337924838        8.1604003554       22.2836088582
  N        11.9103474079        6.8303071011       22.2442700360
  O        13.0484647635        5.2643803187       21.0907386539
  S        11.0372978640        8.9564988296       23.7138419996
  C        11.5526886438        5.9873416866       23.3712862105
  H        11.4263431662        4.9280060262       23.1041298929
  H        10.5276629188        6.2674268481       23.6923957939
  C        12.5796025361        5.7151998140       24.4709725846
  H        12.6015244764        4.6823887179       24.5838282897
  H        12.2323427584        6.3080148271       25.3389882316
  H        13.4436204678        6.1227062083       24.1148125357
