352
 i =    11100, time =    11100.000, E =        24.8841428885
  H        11.6804384593        6.8679533020       32.2103084111
  C        11.3899797852        5.8203568448       32.2079569503
  H        12.1652544363        5.1365821096       31.9448590093
  C        10.2518478670        5.5247258665       31.1636563862
  C        11.0112491358        5.5931001049       33.6490582436
  C        10.4470283963        6.2434617927       29.7703488124
  H        10.2076709547        4.4263837295       31.0144524151
  H         9.3584538667        5.9273659469       31.4627177165
  H        11.4434933470        6.4186687151       34.2450482031
  H         9.9134711458        5.6092492218       33.7061450208
  H        11.2289935622        4.5455110472       33.8834415814
  C        11.4802585903        5.4811054795       28.9209114083
  H        10.5403293751        7.3141887750       29.8918582724
  H         9.4440642733        6.2703558068       29.3181827673
  C        11.1382529526        5.6178918186       27.4600231687
  H        12.4181099101        5.9641244415       29.0244505196
  H        11.6421583711        4.4413280406       29.2791813373
  C         9.8195358354        4.9227892190       26.9757471589
  H        11.8761658431        5.0620905489       26.9189591281
  H        11.2313190301        6.6459592169       27.1154255970
  C         8.7348553241        5.8828970853       26.3650533245
  H        10.1202584022        4.2250438949       26.1606330290
  H         9.4136042701        4.3010380802       27.8222998634
  C         7.5984548240        5.1142584865       25.6463337468
  H         8.3160230063        6.5916995360       27.0682156938
  H         9.1960724158        6.5082416528       25.6174519807
  C         7.1412638373        3.7515118495       26.2177048046
  C         8.0293812069        4.3539913163       24.3439416193
  C         6.4450521407        6.0812259308       25.3768693666
  C         7.3759504562        2.6600516023       25.4338893126
  C         6.5720585914        3.3994937963       27.4248787749
  C         7.8596402890        3.0455756735       24.1717014703
  C         8.4686593592        5.0674410249       23.2336170363
  H         6.7985520628        6.7942977931       24.6872673592
  H         6.2254693991        6.5671490441       26.3335591937
  C         5.2070199534        5.4066078485       24.7065171424
  S         6.8298804598        1.1554822140       26.1357525339
  C         6.3854313497        2.0409274589       27.5396595837
  H         6.5592238025        4.1966269931       28.1547046697
  C         8.2870555817        2.4300919734       22.9915895337
  H         8.4198125073        6.1778640019       23.2206648917
  C         8.7887456404        4.4355505547       22.0670694372
  H         5.5982751551        5.1181553607       23.7025731671
  H         4.9213507937        4.5160534289       25.1731021706
  C         3.9480695941        6.2973422551       24.6298232429
  C         5.9074624472        1.4539125166       28.8604410739
  C         8.7346666026        3.0674872304       21.8610999119
  H         8.2002160831        1.3944734991       22.9086368473
  C         9.2717557481        4.8944988349       20.8552890686
  H         3.2817668520        5.9798951440       23.8559936384
  H         4.2554935812        7.2900464586       24.2942705113
  C         3.1450129562        6.4319248497       25.9141691402
  C         5.8909122157        0.0561767987       29.2155764220
  C         5.3219500714        2.4140044282       29.8597667297
  C         9.1628194757        2.4141290539       20.5931013465
  C         9.4726280375        3.8281361019       19.9699219106
  S         9.4680497278        6.4615733153       20.1805361289
  H         2.4404737732        7.1550927404       25.5472420858
  H         3.5976533088        7.0198065608       26.6800620880
  C         2.3559985187        5.1507462307       26.4785487573
  N         6.2738105441       -0.9348404572       28.3137082151
  C         5.6343213963       -0.3532285815       30.4818952683
  C         5.0102659878        1.9358750664       31.1186996557
  H         5.1761786294        3.4581570027       29.6985492494
  C         8.0998673302        1.6022311740       19.8446719205
  C        10.4797588188        1.6218939041       20.6264657213
  C         9.7921155733        4.2979953543       18.7061036571
  C         9.8336562372        5.6760877127       18.6580421262
  H         1.6229979341        4.8889069939       25.8024508782
  H         3.0749920220        4.3188745762       26.6837949222
  C         1.5636940472        5.4630088714       27.7625842292
  S         6.2008759819       -2.3454116335       29.1189279271
  N         5.7343888667       -1.7370385984       30.5979720933
  C         5.2164122281        0.5385849639       31.5456632538
  H         4.5898657432        2.6768916835       31.7945668695
  H         7.7070523687        0.8997096623       20.5633233648
  H         8.4697496508        0.9937045203       18.9904680131
  C         6.9473227495        2.5042045021       19.2965376701
  H        10.7755481516        1.2985547627       19.5982020443
  H        10.3413509194        0.7795953260       21.2268038642
  C        11.7144780157        2.3162117758       21.2396521191
  H         9.9637868505        3.5809931949       17.9385299465
  C        10.0407695924        6.4519879921       17.4098457112
  H         0.6463864557        4.8798386423       27.8204065192
  H         1.0971414725        6.3644956843       27.5978207735
  C         2.3750346811        5.4046613374       29.0310761539
  C         4.9941951394       -0.0287250078       32.8478389990
  H         7.4477521786        3.0408697599       18.4332328375
  H         6.5422287026        3.2737194266       19.9403360389
  C         5.7875445499        1.6702813269       18.7767367061
  H        11.4331021191        2.7610080750       22.1742058830
  H        11.9371466467        3.0872685984       20.6128740328
  C        12.8650864514        1.3415059983       21.3799591762
  C        10.0127069744        7.8224471102       17.2247729946
  C        10.2758019159        5.6085895522       16.2174302234
  H         2.8790172002        4.5077732751       29.0390433887
  H         3.2033065464        6.1471061733       29.0630600233
  C         1.5687103214        5.5168334793       30.3934015648
  H         5.0733887645       -1.0988052509       32.8833225862
  C         4.6881012194        0.5021316993       34.0902073166
  H         5.5967760811        0.8487044405       19.4547727556
  H         6.0836802167        1.2296014667       17.8014423026
  C         4.5214045442        2.6748146974       18.6241031131
  H        12.8262444903        0.7982546354       22.3916142732
  H        12.9095473967        0.6208988293       20.5352325918
  C        14.2186405637        2.0214211605       21.3593486757
  N         9.6140850247        8.8007194094       18.1863106703
  C        10.2629533690        8.3929228958       15.9824167967
  C        10.5761628541        6.1806526297       14.9960665446
  H        10.3686320067        4.5614982874       16.3145158877
  H         0.9277272585        6.3225784252       30.4037231489
  H         1.0602542537        4.5815899494       30.6362906396
  H         2.2803753079        5.7889510715       31.1375165825
  S         4.2932324652        2.1154106310       34.4444750791
  C         4.5049539758       -0.5292061402       35.2150777167
  H         4.3733195208        3.3119148343       19.5362402021
  H         5.0026941834        3.3855443741       17.9222416938
  C         3.2548473714        2.1511703031       18.0065278938
  H        14.4145819260        2.4567951483       20.3672115291
  H        14.9718803271        1.2135413348       21.4514999180
  C        14.4770645738        2.8924372551       22.5960693298
  S         9.8552156348       10.2549778814       17.5686261969
  N        10.2305864811        9.8224078548       16.0581780933
  C        10.5846083911        7.6360448357       14.8718638819
  H        10.6783180946        5.5722814934       14.1698130158
  C         4.0769637057        1.5288288596       36.1211283917
  N         4.1411246859        0.1531828512       36.2942212598
  O         4.7863711829       -1.7381772495       35.1362326698
  H         3.1384923846        2.7928357496       17.1594722426
  H         2.4402504697        2.4311288936       18.6812526094
  C         3.2227107364        0.5804618043       17.7144616157
  H        14.7615835199        3.8983172829       22.3804002471
  H        13.6533166101        2.8886640654       23.3444735542
  C        15.5941744359        2.3458140777       23.3417819970
  C        10.9137409603        8.2783068694       13.6601752074
  S         3.4983831911        2.5390048941       37.4628148104
  C         4.0172062104       -0.6114178030       37.5623993143
  H         2.4603027284        0.4439705102       16.8215264656
  H         4.2201246609        0.1474923796       17.3079968536
  C         2.8484027892       -0.2663885797       18.9151487654
  H        15.5582919569        1.2982568101       23.5151979510
  H        15.5747496502        2.8326752832       24.3180067476
  C        17.0309198704        2.6623523736       22.7961900169
  H        10.6253553895        9.3575596656       13.6507551475
  C        11.4191664724        7.9677506716       12.4200394136
  H         3.3331007355       -0.1893989613       38.3155216321
  H         3.5144091672       -1.4923325219       37.3360605960
  C         5.5120702988       -0.8902475311       37.9958679391
  H         3.2216588483        0.1168248518       19.9479246189
  H         3.2552338282       -1.3224651618       18.8499463499
  C         1.3682617340       -0.4802701580       19.0119198918
  H        17.0641975977        3.5646506381       22.1146437809
  H        17.7047465047        2.7781723315       23.6534316668
  C        17.7662374430        1.5014932289       22.0409838977
  S        11.9833897558        6.4524752904       11.8718747453
  C        11.5434645935        9.0133439894       11.3896201331
  H         6.0918772824       -0.1386852032       37.4105059260
  H         5.6500263413       -0.8896922190       39.0563206324
  H         5.8188903156       -1.8776336203       37.6218029731
  H         0.9990432567       -1.0322135693       19.8424323939
  H         1.0408810104       -1.0031311561       18.0908227855
  H         0.9636615803        0.5598552278       19.1237500936
  H        18.8615864667        1.6121059882       22.1219580262
  H        17.4562001961        1.4680074869       20.9863812511
  H        17.5581819695        0.5761732479       22.6436137749
  C        12.4201997313        7.1894087178       10.3553241534
  N        12.0411877356        8.4690710183       10.2359324775
  O        11.2337794062       10.2128330088       11.5031352362
  S        13.1649597234        6.3697657403        8.9531557642
  C        12.3198222800        9.2495589541        9.0730285048
  H        12.9783358423       10.0211872630        9.3909453438
  H        12.8861796806        8.6921977583        8.2409000458
  C        11.0849866862        9.8951904475        8.4420604624
  H        11.1902083521        9.6592639675        7.3614899429
  H        10.0467357698        9.4969653565        8.6787879018
  H        11.0318525121       10.9569048850        8.4630802279
  H        19.9804551248       10.2937414084        3.7043073686
  C        20.9253930625        9.8566377402        3.3038892050
  H        20.8072724459        8.8593337786        3.3058606942
  C        22.2020289713       10.1401852134        4.2219745962
  C        21.1524203401       10.3356171255        1.8574641817
  C        21.7823117290       10.6337987419        5.6470848250
  H        22.7767774719        9.2287585372        4.2891781002
  H        22.9657676970       10.8455258469        3.8752663524
  H        20.8720168694       11.3228968218        1.8372094746
  H        20.4749028616        9.7179924535        1.1846855132
  H        22.1852988706       10.3664253397        1.6140666385
  C        20.9196865079        9.4869928186        6.2962885515
  H        22.7701880841       10.7733553212        6.1283931130
  H        21.1783561187       11.4899767372        5.5844311150
  C        20.2967267785        9.6987594632        7.7515821035
  H        21.5020941333        8.5933302557        6.4017536926
  H        20.1033360373        9.1734151349        5.7071564286
  C        19.0626382770       10.5276085280        7.6521368018
  H        21.0745233156       10.1305655074        8.3779974180
  H        19.8848305425        8.7375856219        8.2090880699
  C        17.8631542491        9.7666009767        7.1105175722
  H        18.8055309651       10.8958461592        8.6713679393
  H        19.4131775366       11.2832670628        6.9836729657
  C        16.5762254788       10.6932229817        7.0254718163
  H        17.6242003923        8.8666566692        7.6685303664
  H        18.1052626007        9.4519310691        6.0466068527
  C        17.0280807130       12.0722416247        6.3540261861
  C        16.1942949772       11.3831175974        8.2734008979
  C        15.3251211836       10.0311500029        6.3001609476
  C        16.8327467404       13.1249089562        7.2064921639
  C        17.5726360118       12.4668993451        5.1195081007
  C        16.4330143808       12.7166006839        8.3859617470
  C        15.6720778791       10.7415109831        9.3926168867
  H        15.6531848571        9.7710510023        5.3328803468
  H        14.9186977871        9.2146163636        6.8610470041
  C        14.1707902919       11.0360728463        6.0484060280
  S        17.1866508433       14.6718968645        6.5057392428
  C        17.7038065632       13.8383229827        5.0903871642
  H        17.7658259344       11.6657732319        4.3700136287
  C        16.1184162069       13.2592207875        9.6224621476
  H        15.5629451120        9.6275181176        9.4428598137
  C        15.4622251764       11.3311936355       10.6060162279
  H        14.5209148818       12.0192319158        5.6390050002
  H        13.6950496871       11.3347619072        6.9568213037
  C        13.0725245922       10.5708701376        5.0557331331
  C        18.0683802368       14.6576892286        3.8227077345
  C        15.6388863992       12.6213185944       10.7615748108
  H        16.1807645831       14.3020402038        9.6778533702
  C        15.0724761924       10.9306654332       11.8667118628
  H        12.2398953762       11.3014138074        5.0534298290
  H        12.5642913756        9.7300352110        5.4241639004
  C        13.5109168185       10.3668300274        3.5968384884
  C        17.8699206053       15.9842997993        3.4575806647
  C        18.6313352063       13.8949174989        2.6263127645
  C        15.2525188877       13.3514444484       12.0322351900
  C        15.0957763211       11.9944033009       12.7095057713
  S        14.6493131363        9.4619546414       12.6829996723
  H        14.2782647216        9.6485131917        3.3257659027
  H        13.8820756570       11.3511284198        3.2338785313
  C        12.3480990858       10.1043902793        2.6373709007
  N        17.4429505756       17.0065061466        4.3527401489
  C        18.0447413697       16.5585940000        2.1753773443
  C        18.8600914678       14.4271732071        1.3642635190
  H        18.9261712281       12.8542792407        2.8327131660
  C        13.9525415693       14.1411707028       11.8713838789
  C        16.3787337200       14.2604523623       12.5665595548
  C        14.7945202846       11.6536798129       14.0487057166
  C        14.4825904929       10.3423260559       14.1399750457
  H        11.6227408220        9.5177134721        3.2509150267
  H        11.7643166665       10.9957954816        2.4693870829
  C        12.8136333318        9.5437596505        1.3068396801
  S        17.2011958371       18.4271662502        3.5749903461
  N        17.7834178007       17.9791343773        2.0899523063
  C        18.5428984753       15.8677929058        1.0730097553
  H        19.2487294184       13.7603948112        0.6099288695
  H        14.1501555826       14.9364390267       11.1573097886
  H        13.6548998589       14.4923248077       12.8323901945
  C        12.7405776067       13.3322993172       11.4077184015
  H        16.5490153127       15.0188200415       11.7989221305
  H        16.1410212446       14.9256855749       13.4417422474
  C        17.6857513967       13.5303205129       12.9299679989
  H        14.6317296195       12.4002294259       14.7487190704
  C        13.9427026432        9.6443809913       15.3474220345
  H        12.8881696436        8.4799656315        1.5299773665
  H        13.7436497348        9.9436551401        0.8399362777
  C        11.8120270242        9.9225699176        0.2239288592
  C        18.7961135907       16.4044670042       -0.2311640284
  H        12.9542578785       12.8013223928       10.4399168979
  H        12.5536079772       12.4910657360       12.1056142368
  C        11.5013594167       14.2478136504       11.1314382175
  H        17.9908185432       12.9446598861       12.0723622139
  H        17.4208312494       12.9051719640       13.7379583994
  C        18.7309669117       14.5418203068       13.4673143331
  C        13.8720966743        8.2793497409       15.5366497607
  C        13.7642321994       10.4808481512       16.5599584162
  H        11.2894723260        9.0251119318       -0.1189905489
  H        11.1241578242       10.6895692827        0.5006407439
  C        12.6366943106       10.2974580577       -0.9598018598
  H        18.6138540071       17.4797250627       -0.2469133245
  C        19.1897875592       15.9536331444       -1.4804213195
  H        11.7802202005       15.0141391715       10.3699462817
  H        11.3264691739       14.7814095481       12.0561744974
  C        10.1928021094       13.5447351840       10.7440280864
  H        18.7907225074       15.4931227619       12.9783275641
  H        18.4103099752       14.5837411747       14.5262081036
  C        20.0559166482       13.9065855203       13.4787590243
  N        14.0194362994        7.3275263040       14.5462251764
  C        13.6355883732        7.7217101962       16.7723111987
  C        13.3694036332        9.9107273927       17.7804761829
  H        13.9259471023       11.5059695840       16.5590759560
  H        11.9068323560       10.5133382630       -1.7754323302
  H        13.3095203572        9.5448047656       -1.3233235568
  H        13.2259691093       11.2147610021       -0.8284734704
  S        19.5483042718       14.2995741017       -1.8879713784
  C        19.2949651081       16.9256001408       -2.6419294338
  H        10.3472391126       12.5283915253       10.3868991816
  H         9.6922903328       13.4327014231       11.7214681657
  C         9.2820791110       14.3388228652        9.7650376618
  H        20.2397498458       13.4777482406       12.5063742574
  H        20.0608808855       13.0684814973       14.1842525325
  C        21.2818029809       14.8246330684       13.7444801536
  S        13.8886684731        5.8230762415       15.1489673950
  N        13.6733180437        6.2911951437       16.7135770952
  C        13.3388677109        8.4255728662       17.9212282074
  H        13.3786227815       10.5560680718       18.6288350366
  C        19.7311490511       14.9000819206       -3.4959177404
  N        19.6631481316       16.2476917606       -3.7244389163
  O        19.1581248973       18.1434451874       -2.4767429995
  H         9.1202692188       15.3311188576       10.1091077627
  H         9.7623401992       14.4884025997        8.8139374521
  C         7.9648935159       13.5697258798        9.5412170028
  H        22.2067758715       14.3088256165       13.6494805278
  H        21.2905306460       15.6783401358       13.1069989891
  C        21.2848597269       15.3119108682       15.1462330024
  C        13.0481470396        7.7185053045       19.1293865685
  S        20.2818127314       13.8920946961       -4.7533956753
  C        19.6456557737       16.8414185056       -5.0456157828
  H         7.4489058237       13.8996685773        8.6239990601
  H         8.0822440648       12.5252182510        9.3793629502
  C         7.0728533792       13.7655723758       10.7064557824
  H        22.0922293552       14.8738974892       15.7508699269
  H        20.3695018831       15.0457128631       15.6356344408
  C        21.5326283991       16.8460392528       15.2790709211
  H        13.1911232107        6.6234375604       18.9970083240
  C        12.4632041274        8.1078366434       20.3202651062
  H        20.1510611984       16.2429995563       -5.7880753587
  H        20.1632516386       17.8150646226       -4.8704852568
  C        18.2194169853       17.0231816405       -5.5091550246
  H         7.1764095918       14.7074561146       11.2764640024
  H         7.3612333362       13.0484342188       11.4597716580
  C         5.5538375010       13.6470605010       10.3389113320
  H        21.9046296165       16.9708301683       16.2923931869
  H        22.3639335667       17.1278490274       14.5752455434
  C        20.2969294950       17.7702352335       15.0826172846
  S        11.8060029708        9.6099534401       20.8219147730
  C        12.5335459027        7.0733845088       21.3370584357
  H        17.9777616889       18.0181756887       -5.8571142177
  H        17.4806922628       16.6969059511       -4.7740921499
  H        18.0739461375       16.3599229237       -6.4176853818
  H         5.4064831345       13.6729086237        9.2391723295
  H         5.0114486411       12.8284920022       10.7622515594
  H         5.0577745743       14.6010061773       10.5650256522
  H        19.4011524036       17.1087274971       15.1168260074
  H        20.1661200817       18.4599602584       15.8354815160
  H        20.4714288343       18.2926404128       14.1449131979
  C        11.5291384648        8.7570322825       22.3645356714
  N        11.8295199050        7.4558511455       22.3770878289
  O        13.0908903021        5.9834990846       21.1632482358
  S        10.6764039219        9.4080411805       23.7902776845
  C        11.7919677507        6.6099058830       23.5735073505
  H        11.6108186419        5.5596612941       23.3135256712
  H        11.0276025823        6.9069781601       24.2606433015
  C        13.0458513327        6.7686446576       24.4687866042
  H        13.8078516941        7.2473113236       23.9093702638
  H        13.3914314511        5.7586142086       24.7608926843
  H        12.9146096283        7.3234626561       25.3992451133
