352
 i =    84800, time =    84800.000, E =        24.9161819642
  H        10.5011968325        6.8003876453       32.1417628601
  C        11.4053551206        6.3545839043       32.4201261708
  H        12.0052409213        7.1452111011       32.9725082916
  C        12.0531499687        5.9591505329       31.0909801387
  C        11.2600647330        5.1945088408       33.4543540142
  C        11.1608721095        5.0111870480       30.2320429013
  H        12.3501071015        6.8304329945       30.5805318131
  H        13.0189881088        5.5686197315       31.4004593293
  H        10.5534865577        5.4447647878       34.2738391573
  H        10.9555898416        4.2114398045       32.9925746321
  H        12.2634082427        5.0246505173       33.8210431676
  C        10.3109831711        5.8500886287       29.2161101290
  H        10.4673841122        4.3844639006       30.6973823766
  H        11.8441251676        4.3267170271       29.6611558991
  C        10.9748913885        5.8965507458       27.8561452862
  H         9.3309047886        5.3992935719       29.0562139652
  H        10.1479473319        6.8329282298       29.6401638769
  C        10.1569190686        5.2589528154       26.7506992331
  H        11.9587618305        5.5537480683       27.8892553578
  H        10.9499603006        6.8922016441       27.6388548723
  C         8.8795551769        6.0634721080       26.4003239443
  H        10.6254871914        5.1413948353       25.7828057455
  H         9.7453021951        4.2723143076       27.0734156429
  C         7.8256652152        5.1199485782       25.6598352160
  H         8.3164602840        6.4086573608       27.2457811761
  H         9.0663662124        6.8460186241       25.7452687555
  C         7.4498213723        3.8072294695       26.3281337002
  C         8.3362489345        4.4299418777       24.4726560020
  C         6.4997797202        5.7453586185       25.2321487299
  C         7.7291763257        2.7141052224       25.5083899244
  C         7.0162840857        3.4705620087       27.6152134809
  C         8.2831363199        3.1351529384       24.3340833187
  C         8.6879802555        5.1338479889       23.3150808903
  H         5.9319624039        5.0390298854       24.6577408699
  H         6.5847672268        6.4911649398       24.4660134527
  C         5.5265632647        6.2898188932       26.3551372482
  S         7.2406399648        1.2243816706       26.2730053606
  C         6.7580586157        2.1034474295       27.7135048615
  H         6.9826026103        4.2923593888       28.3393432671
  C         8.6317125747        2.5067349025       23.1875403907
  H         8.6956294241        6.2109357668       23.4471411968
  C         9.0331368657        4.5300770358       22.1565631326
  H         5.6604274027        5.6746343560       27.2189321600
  H         5.7747372028        7.2240393388       26.7957369734
  C         4.0127383997        6.3340973953       25.9751113045
  C         6.1986481003        1.3966516317       28.9225719134
  C         8.9813017646        3.1869953925       22.0260868829
  H         8.3954097792        1.5003324409       23.0484834516
  C         9.4007021924        4.8875123309       20.8556296775
  H         3.7399031663        5.3352821535       25.5840945584
  H         3.7158533955        7.0227191805       25.2784070063
  C         3.0784640759        6.6829372537       27.1795947593
  C         6.2114431692        0.0154429884       29.2278571039
  C         5.6876232131        2.2917009021       29.9835144938
  C         9.2730830546        2.5025133383       20.7900910192
  C         9.5757095665        3.8179569580       20.0664813724
  S         9.6335054391        6.3827737399       19.9990547870
  H         2.1973605108        7.0574094103       26.6382621472
  H         3.4439886699        7.5587414979       27.6935630690
  C         2.6877979191        5.4537448744       28.0812564710
  N         6.6545094972       -1.0041407614       28.3440395450
  C         5.8031699312       -0.5243566728       30.4268560597
  C         5.2771058147        1.7240269883       31.1902030955
  H         5.7484293965        3.3478786243       29.8385412763
  C         8.1285211007        1.7428821282       20.2558964621
  C        10.5778300963        1.7626637948       20.8327943093
  C        10.0379487663        4.1277715529       18.7760747145
  C        10.1431160725        5.5059173150       18.5792578705
  H         2.2056680151        4.7259498262       27.5124485834
  H         3.5863510324        5.1532823230       28.5350819900
  C         1.8613452221        5.8648196565       29.2895938689
  S         6.4478465278       -2.4883556738       29.1081772888
  N         5.9327649370       -1.8915914035       30.5452338857
  C         5.3598438030        0.2800805593       31.5022397970
  H         5.0789874277        2.4072682927       31.9735883384
  H         7.8785564138        0.8908053702       20.8351030482
  H         8.3015876689        1.2857471292       19.2857334646
  C         6.8866455831        2.6894707861       20.0268052806
  H        10.8419466127        1.4208538268       19.8652798685
  H        10.4259009683        0.8133947150       21.4274496905
  C        11.7862381705        2.5889650988       21.4116050468
  H        10.1865398111        3.3754779199       17.9751527627
  C        10.5286976147        6.1537563310       17.3407824789
  H         1.3216834438        5.0087696768       29.7978293703
  H         1.1589487596        6.5752833836       28.9292138630
  C         2.7718376882        6.4214688709       30.4089128902
  C         5.0029106045       -0.3677041229       32.6879301048
  H         7.1294776557        3.2567674241       19.0951817724
  H         6.5783122318        3.3135705686       20.8854971683
  C         5.6558393333        1.9814690207       19.5740507211
  H        11.5595272850        3.2130058415       22.2848813557
  H        11.9766390575        3.4440625851       20.7843375935
  C        13.0647912008        1.7647200755       21.5387905880
  C        10.4170292130        7.5912774578       17.1199191193
  C        10.6629162536        5.3800829168       16.1390711251
  H         3.6584755156        6.8667202814       29.9065647178
  H         2.1776311345        7.3219463702       30.8092693476
  C         2.9404075659        5.2928288433       31.4122222121
  H         4.8171788692       -1.4229554998       32.4764351222
  C         4.9086315211        0.0557125385       33.9754152514
  H         4.8450337090        2.6492026038       19.6313620828
  H         5.4669133687        1.2039081933       20.3152706557
  C         5.6483807227        1.3279449821       18.1620675321
  H        13.1425564497        1.3761641923       22.5777693458
  H        13.1330026775        0.9102111353       20.8503265066
  C        14.2401875709        2.6188769037       21.1344033043
  N        10.2102136385        8.6011820379       18.1355168362
  C        10.7447972805        8.1823262634       15.9359660638
  C        10.9675246624        5.9804319861       14.9381816080
  H        10.5741060874        4.3362236585       16.1897353210
  H         3.7230164440        5.5262861175       32.0773749620
  H         2.0110546545        5.1475916654       31.9395339581
  H         2.9300428814        4.3315473815       30.8700724086
  S         4.7745047803        1.6348986245       34.5917915109
  C         4.9597766998       -1.0457576242       34.9938515946
  H         5.7973824689        2.1847808851       17.4227833633
  H         6.3222329313        0.5221766616       17.9823532791
  C         4.2366873882        0.7171656712       17.8393278916
  H        14.1172521546        3.4899885844       21.6819156485
  H        14.1232513458        2.9221129433       20.0853496085
  C        15.5868005337        2.0456415505       21.5812618678
  S        10.3538142096       10.0422694543       17.5185817968
  N        10.7647600371        9.5988236399       16.0799553895
  C        11.0082535850        7.4305872198       14.8033493343
  H        11.2466781858        5.4066835174       14.1240905237
  C         4.7720674981        0.7992691018       36.1255638781
  N         4.7510841642       -0.5219742422       36.1614035339
  O         5.1994687084       -2.2553560230       34.7233472690
  H         3.9966899999        0.5783857879       16.7713629333
  H         3.4470543054        1.3717043362       18.3081115427
  C         4.0833003609       -0.7048586787       18.4421817569
  H        15.3360023423        0.9540659298       21.7482337115
  H        16.3716122455        2.1529440564       20.8460718223
  C        15.9182798411        2.4928088033       22.9637310277
  C        11.3187753881        8.1848312255       13.6164473346
  S         4.4841307516        1.5815070872       37.6335543695
  C         5.0497909313       -1.2593701908       37.3875518157
  H         4.7280882033       -1.4562840519       18.0498842133
  H         4.2476393542       -0.7479258140       19.5253790424
  C         2.6449583281       -1.2411241211       18.1744748985
  H        15.1407227697        2.2302133247       23.6832280516
  H        15.8899828342        3.5762756494       23.0967177714
  C        17.3185401384        2.0032685979       23.4709314163
  H        10.9067832918        9.1466553010       13.5205224346
  C        12.0040726982        7.9675022071       12.4416082725
  H         4.2721046978       -1.0313093079       38.1411701736
  H         4.7433159185       -2.3260581003       37.2964285249
  C         6.5422738452       -1.1657884889       37.7429354211
  H         1.8958641991       -0.4941597256       18.2690581966
  H         2.5621575294       -2.0331844585       18.9092934730
  C         2.5390517368       -1.6989532234       16.7405515993
  H        17.4984563602        2.5736181184       24.4359688854
  H        17.2991836231        0.9700706903       23.7664344862
  C        18.4778078811        2.2527999053       22.4018856628
  S        12.7449302666        6.5482705700       11.9274865220
  C        11.9147244286        9.0160250446       11.3819838628
  H         6.7835043522       -2.0091208626       38.4440378715
  H         7.1103799264       -1.3573076453       36.8726826320
  H         6.8091069040       -0.1876025541       38.2054713326
  H         3.2391973978       -1.3326769631       15.9845514189
  H         1.5353424958       -1.4660006790       16.3045163022
  H         2.5135716935       -2.7776952689       16.6593036808
  H        18.4215070226        1.5280349746       21.6149838105
  H        19.5002467562        2.2107976122       22.8684276560
  H        18.3272580111        3.2618090027       21.8842971667
  C        13.1638038962        7.3691127444       10.4308064227
  N        12.7626387266        8.6422997553       10.3604616120
  O        11.3383066055       10.0703916377       11.4720848154
  S        13.7743548531        6.5749858247        8.9951011120
  C        12.8882705194        9.4197913544        9.1415991554
  H        13.0226298614       10.4872787887        9.3073474131
  H        13.7298632341        9.2352308130        8.4893902013
  C        11.7742160567        9.1155114621        8.2694458395
  H        11.1348876859        8.3435836979        8.6918044519
  H        11.1499002081        9.9510349176        8.1405705248
  H        12.1527836607        8.7903020781        7.2832744675
  H        21.1307521386       11.0993827814        4.1306105529
  C        21.5887517003       10.1405593539        3.8442336558
  H        20.8468410476        9.3424288466        4.0686596952
  C        22.8733622402        9.9184829018        4.7002820749
  C        21.8852569273       10.1117831459        2.2995774152
  C        22.6530424719       10.0950617582        6.1912273439
  H        23.2815876005        8.8920714043        4.5278401429
  H        23.5766931612       10.7087339391        4.5225745382
  H        22.4128355544        9.1933229814        1.8642386626
  H        22.5006851573       11.0112602377        2.0368516632
  H        20.9268214257       10.1201980604        1.7053960445
  C        21.8338773997        8.9026390178        6.7405591914
  H        23.6138185703       10.2828598412        6.6528793808
  H        22.1087159227       11.0545415512        6.4314997617
  C        20.6649571216        9.1888873920        7.6081041755
  H        22.4620304132        8.2029230416        7.3242591000
  H        21.5690143362        8.2756073116        5.9006004919
  C        19.5313816256        9.7234478282        6.7103052706
  H        20.9465468889        9.8608162114        8.3975926482
  H        20.3536706206        8.2513276357        8.0060256144
  C        18.3371097350        9.7336252796        7.6453967252
  H        19.7860298791       10.7188298761        6.4860667170
  H        19.3726096887        9.0835662898        5.8398841761
  C        17.0897276748       10.5471746374        7.2923281627
  H        18.6157817179       10.1024020770        8.6368601850
  H        17.9540220160        8.7136379243        7.7974428597
  C        17.3632956351       11.8543963453        6.5430047769
  C        16.6135883577       11.3694471235        8.5213985371
  C        16.0821996494        9.5815936947        6.5113892374
  C        17.0752073844       12.9623587862        7.2663300534
  C        17.7947978167       12.2249450972        5.1754529943
  C        16.6018565329       12.6965891480        8.5339258173
  C        16.2724448483       10.7767495219        9.7538374096
  H        16.6480624222        8.9448634235        5.7961076350
  H        15.6639367417        8.8054520200        7.1859171300
  C        14.9748338102       10.4860965335        5.8328726921
  S        17.3716584598       14.4157641321        6.4409142093
  C        17.9174889639       13.6140804423        5.0340866461
  H        18.0229521600       11.3989979363        4.4699316278
  C        16.1944726980       13.3928394633        9.6794052631
  H        16.4727424992        9.6864586166        9.7493331974
  C        15.8111424291       11.4481961521       10.8491010686
  H        15.4202187050       11.3748448600        5.2906970590
  H        14.4246894327       10.8177454612        6.6084812961
  C        14.1031457633        9.6442745517        4.7874554114
  C        18.2721773287       14.2835271788        3.7517734664
  C        15.8546389867       12.7636683429       10.8956007531
  H        16.1465341550       14.4574111235        9.6868941691
  C        15.3872440132       11.0976774533       12.1148924703
  H        13.1410982145        9.4249243453        5.1871570015
  H        14.6018199270        8.6865183582        4.6875194693
  C        14.0827329761       10.1640499500        3.3503113555
  C        18.2377009874       15.6293724006        3.4231013482
  C        18.6327686585       13.3405953442        2.5865529033
  C        15.5609680274       13.5188054891       12.1187103757
  C        15.3198526249       12.1806405208       12.9222481213
  S        15.2745526379        9.5892479521       12.9489307073
  H        15.1101904641       10.4594616195        3.1980405608
  H        13.3905120380       11.0134327949        3.2730223441
  C        13.8378225143        9.1873875836        2.2686948901
  N        17.8871390875       16.6394379301        4.3087974053
  C        18.5423854937       16.1148073627        2.1543587682
  C        18.9164711040       13.8892436626        1.3606233702
  H        18.6741413320       12.3120978123        2.6785845276
  C        14.2793195557       14.3664009523       12.0326383985
  C        16.7536458218       14.3413271201       12.6867238168
  C        15.0543259985       11.7828168242       14.2643740875
  C        14.9761862251       10.4561353159       14.4234465748
  H        14.5782808457        8.3829345330        2.4205465496
  H        12.9124087275        8.7695852527        2.3490233924
  C        14.0677829823        9.8472314120        0.9070434773
  S        17.8910165186       18.0566543060        3.5307842922
  N        18.2686230347       17.5173076632        2.0546667776
  C        18.8568784702       15.3157089153        1.0567010039
  H        19.1749847580       13.0950302094        0.6966524465
  H        14.4288514044       15.3080718037       11.5319493742
  H        13.8722785290       14.7345096509       13.0194526470
  C        13.1502872289       13.5679931574       11.3577096165
  H        17.3762096635       14.6615784039       11.8665824734
  H        16.3886283581       15.2363128154       13.1547324122
  C        17.7070741683       13.6034624776       13.6320958746
  H        15.0233045091       12.5482334521       15.0613529539
  C        14.6013639179        9.6381146471       15.6659153462
  H        14.9117916517        9.4077871181        0.4190946688
  H        14.2282557050       10.9400038685        0.9903112199
  C        12.9717210384        9.5047321817        0.0095675668
  C        19.0644330556       15.9251924453       -0.1888231276
  H        13.2808081285       13.3530986504       10.2927872212
  H        12.8868549706       12.6775401015       11.8053540688
  C        11.8831663675       14.3673488645       11.3016477245
  H        17.9907293196       12.6792879475       13.2137016645
  H        17.1997689136       13.4039247257       14.5537723792
  C        19.0468721586       14.3768197428       14.0510152027
  C        14.3389905392        8.2729854470       15.7297459580
  C        14.5446440807       10.3741467536       16.9108730210
  H        12.8962246350        8.4413685173       -0.1735529750
  H        11.9971875393        9.7588382243        0.4596185386
  C        12.9602927390       10.4113680966       -1.2403624732
  H        18.8751996363       16.9402684117       -0.2839696181
  C        19.4453333936       15.4069483535       -1.4073136364
  H        12.0919244546       15.2957871807       10.6643024150
  H        11.8060458699       14.5624306922       12.3443318209
  C        10.7651338252       13.5327087829       10.6288136754
  H        18.8132605760       15.4208846499       13.8604300253
  H        19.2689237443       14.0293509836       15.0323447782
  C        20.2677656487       14.1304195268       13.1496100993
  N        14.5235466384        7.4055847610       14.6955917540
  C        13.9814199936        7.6254015109       16.8923403146
  C        14.0298997157        9.7570495490       18.0785092357
  H        14.7536116514       11.4300565708       16.9040335848
  H        12.7788046698        9.7999663154       -2.1314766623
  H        13.8508447886       11.0085442983       -1.3642407968
  H        12.0417875819       10.9524195474       -1.2577773357
  S        19.9674056143       13.7839603211       -1.7275149983
  C        19.4992277832       16.3857348235       -2.5978209864
  H        11.1542222983       12.9354190486        9.8182740626
  H        10.3637108655       12.8398340288       11.3650580019
  C         9.5960692100       14.2991578777       10.0182791829
  H        19.9076098139       14.0588621375       12.1321085917
  H        20.6943474953       13.1334516861       13.3719698725
  C        21.3203900729       15.2292447320       13.2508499605
  S        14.3207592684        5.9042219327       15.2806495006
  N        13.9532439791        6.2214468213       16.8536097317
  C        13.8044326674        8.3349672990       18.1239354795
  H        13.8274836613       10.3269354359       18.8989408533
  C        20.1681743329       14.3925646807       -3.4326853826
  N        19.9612625508       15.7059184826       -3.6532068210
  O        19.2972018571       17.5944910995       -2.4444837659
  H         9.0628068427       14.9174797308       10.7307720503
  H         9.9001598828       14.9643567956        9.2738866302
  C         8.5311746835       13.2262743763        9.6411372699
  H        22.2886694223       14.7987587452       12.9779746976
  H        21.1667717430       15.9380329169       12.4554630554
  C        21.4615907762       15.9644486599       14.5668237620
  C        13.4431916997        7.6046277586       19.2821446252
  S        20.8391555042       13.4720007617       -4.7834611524
  C        19.9020153383       16.3038377114       -5.0217920807
  H         8.8283542228       12.7074322496        8.7606895236
  H         8.5036540767       12.5137855371       10.4668054348
  C         7.2005398611       13.7964656641        9.3900256465
  H        21.6568682844       15.2412103284       15.3869080194
  H        20.4821098423       16.3724622421       14.8506515811
  C        22.4589124611       17.1326110568       14.5883965464
  H        13.7622856183        6.6223556279       19.2967341093
  C        12.8415405609        8.0110402883       20.4445426285
  H        20.6512928499       16.0103371399       -5.6242258947
  H        20.1362574980       17.3761698181       -4.9348038409
  C        18.5261719125       16.2244129507       -5.6411746682
  H         6.7659422790       13.1415916044        8.6310367065
  H         7.2922991352       14.7235121168        8.7844967919
  C         6.4097788374       14.0168262606       10.6493201107
  H        23.3898737425       16.8247863447       14.1696965461
  H        22.0560622348       17.9479046394       14.0332208427
  C        22.6324168063       17.5080533055       16.0469045659
  S        12.1517901863        9.5753247330       20.7731694156
  C        12.8201753658        7.0031496069       21.5391928814
  H        17.8638097232       17.0826833004       -5.4228318548
  H        17.9719892234       15.4696413925       -5.1631167807
  H        18.5619016136       16.0053594636       -6.7103838040
  H         5.4133794083       14.0795890199       10.4466556628
  H         6.4854511338       13.0518851676       11.2227435711
  H         6.6648304722       14.8735568417       11.1686107166
  H        22.3638918024       18.5800216519       16.1353400410
  H        22.0271355902       16.8981602299       16.7399934844
  H        23.6011326122       17.3093532493       16.3673257859
  C        11.7872954112        8.7977459857       22.3255004430
  N        12.1089026558        7.5310437389       22.5143379883
  O        13.5394741562        5.9770505136       21.4790497993
  S        11.5457841974        9.7523010437       23.7896724930
  C        11.8983118500        6.8123888663       23.7345383891
  H        11.5559469754        5.7300311505       23.6095392522
  H        11.1225029202        7.3056320023       24.3373794740
  C        13.1433280517        6.7797092985       24.5652276722
  H        12.8542694790        6.7501973257       25.5929544493
  H        13.8563308517        7.6043029061       24.2079430866
  H        13.7126158687        5.8031712116       24.3605401916
