352
 i =    63800, time =    63800.000, E =        24.9866579368
  H        10.1975129287        4.4051074253       31.2169346124
  C        10.3315092746        5.4157569478       31.5179021562
  H         9.3419765249        5.8871951770       31.3824256775
  C        11.2627305147        6.2325049974       30.7238205312
  C        10.6484924573        5.4031670200       32.9716354363
  C        11.6356344600        5.6121730637       29.3357156322
  H        10.7846339607        7.2096595177       30.6034456064
  H        12.1670036730        6.3718611163       31.3178950997
  H        10.2496247592        4.4723884901       33.3547441892
  H        11.6949631677        5.2711877156       33.0852272291
  H        10.3208092898        6.2512643066       33.5947711895
  C        10.5210338730        5.2839028596       28.4092904380
  H        12.1007807863        4.6514973169       29.5461279973
  H        12.3326600753        6.2502125049       28.8478256605
  C        10.9531999019        5.2204387339       26.9859116458
  H        10.0914839893        4.2871939350       28.7648243734
  H         9.6987331170        6.0434007403       28.6097954385
  C         9.8326864594        4.5993445882       26.1883319929
  H        11.7366130560        4.4880213762       26.9962501695
  H        11.2323743267        6.2051800377       26.7094597092
  C         8.6238800155        5.4890922188       25.9256737421
  H        10.2927884284        4.3041446148       25.2568827544
  H         9.5207708569        3.7496887389       26.6824447932
  C         7.3821734291        4.7796407836       25.3560043887
  H         8.3281575644        5.7545000105       26.9151739940
  H         8.7892257713        6.3944634163       25.2924880659
  C         6.9836802515        3.4471837735       25.9745840684
  C         7.8800912724        4.0579554991       24.1328277480
  C         6.2112985690        5.7126483553       25.1031607669
  C         7.1270494581        2.3961652351       25.1486996430
  C         6.6163162649        2.8908499832       27.2441057033
  C         7.6419942104        2.7652004221       23.9544802121
  C         8.3664189597        4.7404413171       23.0150682336
  H         5.7265126150        5.3409387866       24.1636989593
  H         6.6264739993        6.6713447993       24.9072633743
  C         4.9893707200        5.7537915880       26.0920181804
  S         6.7857072807        0.8068177075       25.8245744759
  C         6.3371045428        1.5846910529       27.2593746009
  H         6.6466556231        3.5265283637       28.0361354189
  C         7.9071570538        2.2037449993       22.7753016728
  H         8.3380817032        5.7851368475       23.1167080930
  C         8.6039177478        4.1864373791       21.7974899267
  H         4.7721979136        4.8047669954       26.5305963368
  H         5.3180946608        6.4553606298       26.7993696557
  C         3.7121298394        6.0747843961       25.3520492735
  C         5.9020849140        0.9398608769       28.5099640468
  C         8.4579135801        2.8644017444       21.6729669715
  H         7.6862184279        1.1168418459       22.6398374791
  C         9.0667596395        4.6715430102       20.6041437443
  H         3.5608472652        5.3030309111       24.6657681770
  H         3.8649771458        7.0363515426       24.8526977824
  C         2.4715252892        6.1586906184       26.2101871357
  C         5.8688921950       -0.4537879013       28.8301172547
  C         5.2737931935        1.8008223489       29.5706366381
  C         8.8285401106        2.2656013433       20.3714816492
  C         9.2716397532        3.6183709454       19.7597356526
  S         9.5798492671        6.1900313207       19.9645640257
  H         1.7132299769        6.7072509902       25.5853605563
  H         2.8180619923        6.8333187503       27.0188823741
  C         1.9510283937        4.7916165931       26.6858792735
  N         6.1367689979       -1.4121332149       27.8779404746
  C         5.6878531441       -0.9474465508       30.0941081771
  C         5.0281696310        1.2568343386       30.8456994517
  H         5.2585078434        2.8207321854       29.5541382642
  C         7.5576834779        1.7735117129       19.6001892390
  C         9.9144480513        1.2274762589       20.4743841656
  C         9.7219875493        4.0495490491       18.4706077783
  C         9.8867891089        5.4003326870       18.4883824219
  H         1.2040455172        4.4077574820       25.9623548717
  H         2.7390141915        4.0324096268       26.6738809244
  C         1.3401828429        4.7748427899       28.0968905827
  S         6.0276590149       -2.8873510115       28.6444229815
  N         5.8825916449       -2.3713473558       30.1868762044
  C         5.2962248627       -0.1283381419       31.1931767385
  H         4.7088774935        1.8926814181       31.6934088542
  H         7.2948824738        0.7754593338       20.0048924356
  H         7.8380178399        1.6027822615       18.5565635387
  C         6.3385946289        2.6591949924       19.6151944071
  H        10.0899089340        0.8816234467       19.5090916842
  H         9.5735548455        0.2950647209       20.9868480467
  C        11.2006089086        1.7332004384       21.0930461102
  H         9.7459866046        3.3044316148       17.6793697557
  C        10.2024962765        6.2027604662       17.2305829413
  H         0.8336543238        3.8432802316       28.2885071585
  H         0.6444997968        5.5030565103       28.2450313764
  C         2.4600899865        4.7743513321       29.1747411352
  C         4.9962123386       -0.6825149379       32.4914892337
  H         6.5582995858        3.4755092552       18.8963141816
  H         6.0971344632        3.0195097881       20.5630613951
  C         5.0310954216        1.9575231070       19.1035530860
  H        11.1134825340        1.7659992532       22.1994506837
  H        11.3882445133        2.7461946915       20.8182451817
  C        12.5015533863        1.0644980226       20.7517851922
  C        10.2920122103        7.5624429795       17.1467972145
  C        10.5306976067        5.4347731493       16.0230142842
  H         3.1143893516        3.8893779190       29.1094061306
  H         3.1836506246        5.5687479817       28.8414062889
  C         2.0156545847        4.9530434153       30.6859964774
  H         5.1649633081       -1.7048976633       32.5811246221
  C         4.7440473757       -0.2325969941       33.7394562870
  H         4.2244613554        2.7272792045       19.0075855283
  H         4.6598429621        1.2522625999       19.8226481887
  C         5.0042513239        0.9903038995       17.8119041618
  H        12.6270491216        0.2230059150       21.3690317686
  H        12.4665153611        0.8086192792       19.7203885980
  C        13.7297276106        1.9620903625       21.0220768588
  N         9.9977137511        8.4476983713       18.1730062996
  C        10.6099572953        8.2112221341       15.9383787420
  C        10.9727909769        6.1216309249       14.8886024352
  H        10.6147719210        4.3472024781       16.0069351549
  H         1.5738201734        5.9841901279       30.7742424435
  H         1.1474511112        4.3581057975       30.8806654913
  H         2.8895618545        4.8556316558       31.4691066248
  S         4.4464584485        1.4076517889       34.2190979785
  C         4.7292865855       -1.2782552320       34.8468332008
  H         5.4508406658        1.4939697187       16.9848191560
  H         5.5321569376        0.0919270886       18.1387407698
  C         3.5872565520        0.6020584886       17.4474617581
  H        13.9050534199        2.7526179436       20.3459598622
  H        14.5948692990        1.3565876922       20.7862510414
  C        14.0497580265        2.4058345547       22.4517207039
  S        10.0036838559        9.9865532962       17.6013547294
  N        10.5573152577        9.6072103194       16.0929785567
  C        10.9110745562        7.5699663110       14.7106192773
  H        11.2509449698        5.3945390346       14.0895199236
  C         4.2932571327        0.7501271970       35.8752664265
  N         4.2503024986       -0.6161512803       35.9528205531
  O         4.7474093766       -2.4968901743       34.6699893733
  H         3.5369704636        0.6388874171       16.3411998459
  H         2.8709155763        1.3279922575       17.7723660034
  C         3.2999541925       -0.7604756382       18.0016083458
  H        13.2226815397        3.0180021481       22.7793152454
  H        14.0089184870        1.5626977748       23.0475745476
  C        15.3927830216        3.1066251421       22.6833822226
  C        11.2279875726        8.3795291340       13.5770247056
  S         4.0470376968        1.6554028351       37.3020017972
  C         4.1005416873       -1.4106858764       37.1834129683
  H         3.8325881204       -1.5123127184       17.3163339716
  H         3.8325311013       -0.8377241978       18.9835426108
  C         1.8479323764       -1.0357685191       18.1439847793
  H        15.0883161893        4.1304219768       22.9522025325
  H        15.9016819316        3.0625584433       21.7299238462
  C        16.2831750464        2.4092065163       23.5807365828
  H        11.1358070983        9.4352293824       13.7217722442
  C        11.6274672954        8.0803822658       12.2941482554
  H         3.2620954720       -0.9851493273       37.7842362440
  H         3.7841433447       -2.4081346236       37.1396214788
  C         5.5071638195       -1.3416402689       37.9767221993
  H         1.3005278102       -0.7375995045       17.2436304841
  H         1.4586253427       -0.6629892409       19.1001915115
  C         1.7267138406       -2.5501829368       18.3494662971
  H        16.3045039300        3.0285564290       24.4400179922
  H        15.8818802507        1.4394431381       23.9428211899
  C        17.7080265455        2.2311010823       22.9942594660
  S        11.8712203217        6.4668104492       11.6799253724
  C        11.7773381785        9.2016706144       11.2814349360
  H         5.2311346192       -1.5760990605       39.0241998009
  H         6.2082853869       -2.0632053228       37.5180437471
  H         6.0310680731       -0.3677246933       38.0438278157
  H         0.8202615269       -2.7727262810       18.9501325583
  H         2.6548567267       -2.8973397999       18.9012592154
  H         1.8166163829       -3.0949623577       17.3460413838
  H        18.3395911079        1.7324814267       23.7514663261
  H        18.0508922848        3.1555438056       22.5710637339
  H        17.6522504866        1.6186890273       22.1193810980
  C        12.3411223509        7.2962256243       10.1640275327
  N        12.1289554765        8.6432338469       10.1362746617
  O        11.4383032322       10.3591729738       11.5135416146
  S        13.0559365607        6.5775456152        8.7257558478
  C        12.0871181839        9.4309651734        8.8688545095
  H        12.6168568854       10.3592740447        9.0918179662
  H        12.7414133334        9.0213991328        8.0926622805
  C        10.8077490967        9.5920072948        8.1962881245
  H        10.0441302465        9.4341583797        8.9067799777
  H        10.6131194063       10.5465732921        7.7765555641
  H        10.8191600227        8.8379202238        7.3970714178
  H        22.2356241174        8.8220460286        4.1390360961
  C        22.3168523448        9.8998739166        3.7950014107
  H        23.0007943423        9.8920640555        2.9432318529
  C        22.8322102611       10.5885753977        5.0963118695
  C        20.9967871640       10.3337669646        3.2344127067
  C        21.8289245865       10.6582920545        6.2857773553
  H        23.6988784387        9.9617674518        5.2772222234
  H        23.3292809013       11.5529787410        4.9762877801
  H        20.6042111665        9.5662652937        2.5286674248
  H        21.2058764484       11.2973430738        2.6919244780
  H        20.3132424779       10.6547572111        4.0030084328
  C        20.9861808214        9.3655312224        6.6147441850
  H        22.4576321027       10.8993771331        7.1040481940
  H        21.2343535689       11.5198541437        6.1757101562
  C        20.2775524119        9.5620982062        7.9417573022
  H        21.6466452986        8.5173095323        6.6965779456
  H        20.2763950931        8.9152982920        5.8542158942
  C        19.0563144384       10.4675871664        7.7723877300
  H        20.9452035842        9.9763542536        8.6805424165
  H        19.8876554642        8.5423948089        8.2954132140
  C        17.7791285305        9.7601962128        7.1951861335
  H        18.9767605282       11.0144315325        8.7663312638
  H        19.2803319566       11.2085993049        7.0123724273
  C        16.6260089369       10.6991013276        6.8801261256
  H        17.5132944239        9.0375519391        7.9441284605
  H        18.0715495953        9.3774365336        6.2389442595
  C        17.0523423910       12.0745898461        6.2124212386
  C        16.2151405906       11.4374668783        8.1492094370
  C        15.4057245914        9.9810216407        6.2609240971
  C        16.8526477135       13.1176639106        7.0685025572
  C        17.4636011825       12.4494665207        4.9521557065
  C        16.3531462550       12.7417129127        8.3188922230
  C        15.8408363251       10.7299090402        9.2952098765
  H        15.7092070090        9.4072331195        5.3768469075
  H        14.9928565732        9.2828307230        6.9654256953
  C        14.2717847024       10.8658632541        5.8089789410
  S        17.2235029923       14.6063057166        6.3453635215
  C        17.6546345507       13.8241694780        4.8642171100
  H        17.7527647433       11.7306904193        4.1979741744
  C        16.0212062474       13.3301829023        9.4981474446
  H        15.6645862987        9.6434775679        9.2343019799
  C        15.5133628333       11.3752750781       10.4880072437
  H        14.6970368307       11.4380724866        4.9926712294
  H        13.9284833309       11.5494229350        6.5873671693
  C        13.0470966850       10.2560871001        5.1941739863
  C        18.2589076843       14.5312449181        3.6832489806
  C        15.5955686995       12.6923416241       10.6499288435
  H        16.0426885314       14.3806525512        9.6301145352
  C        15.1792018411       10.9302263825       11.7226152345
  H        12.1118754843       10.7992440283        5.5184654366
  H        13.0151132997        9.2302890367        5.6020117425
  C        12.9443451306       10.0735480207        3.6810193941
  C        18.2138961920       15.9536476468        3.5078084767
  C        18.8214321232       13.8149863541        2.5431866694
  C        15.3668608282       13.3546454759       11.9672670706
  C        15.0710380324       11.9604150989       12.6088393862
  S        14.8226810780        9.3575190354       12.4551407073
  H        13.5060152519        9.1685545370        3.5985295615
  H        13.3711786736       10.8164347479        3.1082109431
  C        11.5912974974        9.8998505847        3.1584513612
  N        17.7464570439       16.8191961136        4.4826443127
  C        18.5248013627       16.5957596549        2.3406638530
  C        19.2016564441       14.4922366631        1.3707014741
  H        18.7787436126       12.8127626774        2.6672467751
  C        14.0172240318       14.2246111806       11.9513455345
  C        16.5441676048       14.1586171694       12.5090834833
  C        14.5578231161       11.5222090377       13.8657918241
  C        14.4245896701       10.1453971392       13.9307781999
  H        11.0940056123        9.2634491323        3.8647816684
  H        11.1020950212       10.8784591861        3.0277371715
  C        11.5453010708        9.0741024963        1.8661130078
  S        17.6452161737       18.3485566260        3.9073729691
  N        18.2394387707       17.9678193200        2.4352454896
  C        18.9856752557       15.9357362476        1.1749796831
  H        19.6276337180       13.8899603556        0.5618123091
  H        14.1706154285       15.2944542782       11.7046066878
  H        13.8336165270       14.2701931798       12.9835959230
  C        12.9088925574       13.6115664426       11.1401345222
  H        17.0338338471       14.8423376975       11.7868538548
  H        16.1123640024       14.8949161787       13.2225075520
  C        17.6615448129       13.4334066569       13.2845268814
  H        14.4817478883       12.1330641802       14.7565575450
  C        14.0622602903        9.3891033562       15.1472801907
  H        10.6271414314        9.1719921598        1.3146295672
  H        11.7633992012        8.0420602623        2.1153553328
  C        12.5600093515        9.8224252756        0.8818726965
  C        19.2324101646       16.6283133861       -0.0593101407
  H        13.2469228283       13.5582596967       10.0603671609
  H        12.8214200153       12.5474106584       11.2488550859
  C        11.5377069200       14.2944413789       11.0929807008
  H        18.3040710844       12.7721836631       12.6775707103
  H        17.3625474616       12.7199575358       14.0565074937
  C        18.5077318201       14.3046028365       14.2308120960
  C        14.0890949455        7.9698434129       15.3137540867
  C        13.7635442090       10.1807834684       16.4186639664
  H        12.6143074996       10.9032717721        1.0454971555
  H        13.4852401502        9.4380763708        1.1596845728
  C        12.2388189074        9.6651252461       -0.6151405722
  H        18.9172594033       17.6596371304       -0.0370956802
  C        19.6316626082       16.3241651951       -1.3308098077
  H        11.5649326809       15.0484685599       10.3341143963
  H        11.2474336375       14.6763439237       12.0107801930
  C        10.4207320665       13.3402018468       10.6829349485
  H        18.7389592581       15.2276568736       13.7135319992
  H        18.0039980481       14.6670089000       15.1215557026
  C        19.8100910951       13.7083092137       14.7065300840
  N        14.3104579454        6.9537664879       14.3839387689
  C        13.7561783203        7.3724573658       16.5392911323
  C        13.4611760983        9.5713320429       17.6164535022
  H        13.6331067237       11.2675511805       16.3956000659
  H        12.2584948240        8.6436949392       -0.9128203029
  H        12.9358913960       10.1252202750       -1.2696945316
  H        11.2095629152        9.9800226732       -0.7720787065
  S        20.1139990972       14.7517709441       -1.9056909235
  C        19.4205335568       17.3421792696       -2.4301903945
  H        10.6966160359       12.7062832245        9.8626647802
  H        10.2218516327       12.6901156224       11.5534582571
  C         9.1800481792       14.0036252602       10.2298183323
  H        20.3823552066       13.3933473361       13.8236998707
  H        19.6111278457       12.7330487149       15.2222245077
  C        20.6215725464       14.7480252389       15.4286264933
  S        14.3564493505        5.5052441642       15.1306427795
  N        13.9248221247        5.9393427824       16.6415230044
  C        13.4202408787        8.0864117718       17.6726455491
  H        13.3540958723       10.1644322829       18.4629417534
  C        19.8878797011       15.4685052088       -3.5292693278
  N        19.7366778391       16.8120789882       -3.5905175817
  O        19.0572701736       18.5608155249       -2.2759146748
  H         8.5161768631       14.4870823502       11.0689911999
  H         9.3786864306       14.8418537904        9.5147335428
  C         8.2812759600       13.0463094518        9.3690139231
  H        19.9290956653       15.1476276157       16.1937730138
  H        21.3613258347       14.2900268895       15.9141733720
  C        21.2263732466       15.9291896614       14.6523090928
  C        13.1175394545        7.4061396897       18.9030714999
  S        20.4238244567       14.6176066251       -4.9783015784
  C        19.5132223179       17.5834057480       -4.7594282050
  H         8.7822134865       12.6287236175        8.4682035896
  H         8.0139119981       12.1851066149        9.8901203791
  C         6.9754918269       13.7576182280        8.8664509104
  H        20.4572455631       16.4813312518       14.1603221284
  H        21.7830537020       15.5149953777       13.7831204197
  C        21.9792794183       16.8983679986       15.5422303701
  H        13.4711112038        6.3792895614       18.9414712069
  C        12.5932412666        7.7497716065       20.1289218091
  H        20.3144216223       17.3615218310       -5.3934921975
  H        19.5016884850       18.6402159199       -4.5449070162
  C        18.1172906250       17.2423904768       -5.3419735912
  H         6.6502412349       13.2283208612        7.9746451180
  H         7.2445347492       14.8364696838        8.6198907327
  C         5.7690597235       13.9277749966        9.8039843462
  H        21.6895665221       16.7459499399       16.5708072265
  H        23.0246793794       16.4728769646       15.5812622403
  C        21.8430545748       18.3351374176       15.1284302418
  S        11.8988627032        9.2539095266       20.4518212217
  C        12.5799909141        6.6837885379       21.2082103039
  H        18.1953930603       16.5200285215       -6.1646215015
  H        17.5688169066       18.0942632104       -5.7703620289
  H        17.4004617954       16.9673929467       -4.5888076664
  H         5.3262511191       12.9644422374       10.0710847937
  H         5.9284799507       14.4496470830       10.7694402017
  H         5.0317873759       14.6251794298        9.4108418713
  H        22.3452968720       18.5747870021       14.2356047144
  H        20.7823345208       18.6315362538       15.0162374938
  H        22.3179447086       18.9114721065       15.8755044321
  C        11.5927690866        8.5913693772       22.0976226930
  N        11.9655589098        7.2515378192       22.2488910952
  O        13.0236760604        5.5211261439       21.1814287615
  S        10.9077500153        9.4327351776       23.3907016825
  C        11.9238832703        6.4754240744       23.5194292977
  H        11.7157200887        5.4836819073       23.2788809844
  H        10.9950135246        6.7861809716       24.0776367739
  C        13.1545411677        6.5982480507       24.3680216804
  H        13.9543577115        6.1329746665       23.8520923725
  H        12.9414303374        6.1941279876       25.3607448544
  H        13.5059391967        7.6059531977       24.5813369830
