352
 i =    34200, time =    34200.000, E =        24.7609609684
  H        11.7994366415        7.1922526030       32.9199534697
  C        11.9571950437        6.1578701440       32.5994533834
  H        12.9535102268        6.1001051301       32.1830765140
  C        10.8841449045        5.7432677443       31.5128304606
  C        11.7260584712        5.2382242399       33.7843790208
  C        11.3727898315        5.9267607483       30.0873025913
  H        10.6567717771        4.7269578664       31.6193483779
  H         9.9458325592        6.2880962871       31.6839626444
  H        12.1364561419        4.2878631185       33.6996957858
  H        12.1155009857        5.7156697404       34.6582656533
  H        10.6618613930        5.1678555113       33.9128657089
  C        10.3221294764        5.5520470400       28.9862884357
  H        12.1106251214        5.1710197659       29.9597650769
  H        11.9570666963        6.8728464581       29.9611148229
  C        10.8232004567        5.8096647160       27.5939852750
  H        10.0839231423        4.4743473112       29.0378362325
  H         9.4517221709        6.2078030958       29.0872933019
  C        10.0890401716        5.2120010821       26.4012120617
  H        11.8399834412        5.4859195976       27.5191270383
  H        10.7933604199        6.9227871218       27.6499307178
  C         8.7952002652        5.9746472588       26.1442030416
  H        10.7550997553        5.2278378013       25.5454711700
  H        10.0265336873        4.1905820191       26.7703548838
  C         7.7366811028        5.1868056690       25.4390096968
  H         8.3383082483        6.3120553434       27.0944371206
  H         8.9196096901        6.8950701501       25.6039692901
  C         7.4593381300        3.8666448437       26.1595592617
  C         8.1334802019        4.5086252565       24.2101040096
  C         6.4569455141        6.0430045059       25.2467744883
  C         7.5583984019        2.7874672913       25.3130413351
  C         6.9807464796        3.4895329351       27.3677191631
  C         8.0160193051        3.1633995055       24.0611312293
  C         8.5416313488        5.2177798412       23.0397667477
  H         6.6375613029        6.9674094948       24.8452500414
  H         6.1035704103        6.1870515251       26.2473617359
  C         5.3228284142        5.4156661676       24.5488011741
  S         7.0795136668        1.2466922953       26.0257295986
  C         6.8056202015        2.1068033009       27.4548301775
  H         6.8851690018        4.2865756217       28.1179051395
  C         8.2369836155        2.6309756509       22.7951948178
  H         8.4861913853        6.2310556362       23.1737292165
  C         8.8326236078        4.6277381532       21.8468172733
  H         5.6779309743        5.2187913251       23.4715101466
  H         5.0879952222        4.4206561513       24.9085459872
  C         4.0535680559        6.2978087297       24.4978949801
  C         6.2953080856        1.4023983633       28.6486119259
  C         8.7501398997        3.3116151440       21.7302026148
  H         8.0383560012        1.5557984326       22.6685343178
  C         9.2274106312        5.0645239350       20.5960726466
  H         3.4440494158        5.9601711926       23.6900888602
  H         4.3922385175        7.2766892535       24.2096188868
  C         3.2718207647        6.4748617523       25.8221573995
  C         6.2930845256       -0.0084448705       28.8921463749
  C         5.7632577942        2.1834751694       29.7495206060
  C         9.1038460943        2.6003003228       20.4658264261
  C         9.3472064013        3.9717539050       19.7498413620
  S         9.4970950911        6.5588245567       19.7419408047
  H         2.4161262352        7.0817551646       25.5986170452
  H         3.6643259418        7.0824083019       26.6252658686
  C         2.6971796330        5.0920285419       26.2817048631
  N         6.7677944792       -1.0542833996       28.0090416410
  C         5.7628985516       -0.5754475161       30.0370692058
  C         5.3593545016        1.6238977483       30.9510435558
  H         5.7017042922        3.3129335169       29.7735764920
  C         7.9392768947        1.7905025394       19.8329170437
  C        10.3790591692        1.7426205222       20.7347342438
  C         9.5871179244        4.3333230433       18.3820406039
  C         9.6954001928        5.6845371625       18.2504513613
  H         1.9418486154        4.7297154465       25.5627256341
  H         3.4780045192        4.3183163659       26.4702493380
  C         1.7683352275        5.2197710967       27.5212865292
  S         6.4309754012       -2.5024235811       28.6456501690
  N         5.6949447239       -1.9488249276       29.9810276326
  C         5.3225929966        0.1997584881       31.1255604434
  H         5.0513551722        2.2810374788       31.7281104619
  H         7.6866066790        0.9598039320       20.4702064900
  H         8.3448935761        1.2578542670       18.9425832645
  C         6.6895382056        2.5674399849       19.4773419545
  H        10.5013545669        1.0546703103       19.9101894013
  H        10.1841555777        0.9811575733       21.5079569066
  C        11.7259273930        2.5583614154       21.0237468323
  H         9.6234759881        3.5540006432       17.5985210834
  C         9.9743284091        6.4365874168       16.9923413836
  H         1.3427618157        4.2512000948       27.8056818297
  H         0.8671342100        5.7321349319       27.2071764187
  C         2.4097282345        5.9194079154       28.7551226875
  C         5.0340431815       -0.3771163356       32.4050305799
  H         6.9732190960        3.5511095751       19.1863555223
  H         6.1012876853        2.8222834924       20.3655950904
  C         5.8247733166        1.9000721203       18.3258799975
  H        11.4948421091        3.2364193496       21.7744819662
  H        12.0000395175        3.1005768847       20.1116997168
  C        12.8449098806        1.6025019135       21.2901404110
  C        10.1173785525        7.8183700698       16.8123441242
  C        10.1060063875        5.6948049393       15.7399535233
  H         2.4898708423        6.9730350581       28.5803546318
  H         1.7148334599        5.8683500258       29.5944692530
  C         3.6683246503        5.3523263821       29.2280194469
  H         5.0990895057       -1.4463635301       32.3457788223
  C         4.8135641661        0.1772944130       33.6308639052
  H         5.5860575511        0.8950136221       18.5576463554
  H         6.3570259497        1.9256838807       17.4079363297
  C         4.5402175207        2.6119194051       18.1478901495
  H        12.8325518006        1.1045621679       22.2881957287
  H        12.7454387871        0.7656000853       20.6072691298
  C        14.2601548209        2.2872492643       21.1314572800
  N         9.9618742617        8.7221815466       17.8395678032
  C        10.4339819307        8.4652847341       15.6295252000
  C        10.3523505688        6.2836209685       14.4567555853
  H         9.8257848206        4.6036925391       15.8020323033
  H         3.8493369280        5.8518669755       30.2150859343
  H         3.5983037974        4.2502639547       29.3626815641
  H         4.5378835053        5.5181247618       28.6109634103
  S         4.5391604885        1.8980781849       34.1552974127
  C         4.7640378574       -0.7128227249       34.7583667396
  H         4.5979971349        3.5416730969       18.6948088761
  H         4.4896563771        2.8008749488       17.0506059954
  C         3.3700583117        1.8132318197       18.5839645556
  H        14.4777887371        2.6568359086       20.1285906930
  H        15.0184401194        1.5088604554       21.2552418492
  C        14.5226852351        3.3758522321       22.2689830342
  S        10.1086658127       10.2431998301       17.2962046450
  N        10.5132534124        9.8455686756       15.7751511628
  C        10.5490713416        7.7772215858       14.4033718502
  H        10.4682078222        5.6816750713       13.5777469262
  C         4.2279401517        1.2179283563       35.7530693878
  N         4.3556794858       -0.1194614446       35.9222473445
  O         5.0336797379       -1.9288262674       34.6731768970
  H         2.4579431046        2.4943360106       18.6398106543
  H         3.5423538158        1.3635946770       19.5669860348
  C         2.9202830245        0.7609952770       17.6173007400
  H        15.0973260573        4.2206566180       21.9723480666
  H        13.5177395551        3.7209606908       22.6403192635
  C        15.1436015541        2.6325299618       23.4544583094
  C        10.8695621088        8.5262644215       13.2758722378
  S         3.8831015946        2.2246524111       37.1755504911
  C         4.3764670299       -0.7518048379       37.2621660039
  H         2.6068854665        1.2066557716       16.5730203075
  H         3.7977452096        0.1983606723       17.4003316829
  C         1.9326023064       -0.2767680077       18.1553905290
  H        15.0301639775        1.5888384911       23.5948431756
  H        14.5783772370        3.1312308319       24.3054607839
  C        16.6054244487        3.0104239697       23.5607975587
  H        10.7602169309        9.6767412837       13.3218307177
  C        11.4160878002        8.1573253256       12.0378394739
  H         3.7852049143       -0.1345222525       37.9420465300
  H         3.8888296127       -1.7547726078       37.2607859517
  C         5.7750164648       -0.7899259365       37.8757848512
  H         0.9316224035        0.1927715509       18.2979837511
  H         2.3328094106       -0.5231723968       19.1556113594
  C         1.9502102671       -1.5569726948       17.3073737069
  H        16.6738666234        4.1327489713       23.6925496744
  H        17.1271673635        2.5804943644       24.4504093671
  C        17.4073213891        2.4181480343       22.3664568808
  S        11.7222498580        6.5770798858       11.4938634437
  C        11.5350247479        9.1570263877       10.9521309945
  H         5.9843760898       -1.8056355021       38.1897107060
  H         6.6239715599       -0.3895702238       37.3296518260
  H         5.7435687204       -0.1925881697       38.7643162977
  H         1.2226490484       -2.2762085367       17.6834837425
  H         2.8546848385       -2.0996810474       17.4511013904
  H         1.7079531887       -1.5417127753       16.2359495238
  H        18.4278118005        2.7158337254       22.5072340487
  H        17.0897500235        2.7385455100       21.3350763957
  H        17.2453406880        1.3468492944       22.4976100470
  C        12.3127760862        7.3032520539       10.0393010756
  N        12.0669346579        8.6031947772        9.8657292570
  O        11.3799876415       10.3642145238       11.1398337222
  S        13.0978187765        6.3666156567        8.7458311611
  C        12.4156205283        9.3743670853        8.6241491337
  H        13.0233669476       10.2254658903        8.8573987174
  H        12.9517493695        8.7350396515        7.9412250422
  C        11.1226326102        9.9880191794        7.8959449920
  H        10.2388920719        9.4911329662        8.2480849423
  H        10.9951705852       11.0345181032        8.2476861654
  H        11.2934424295        9.9582230880        6.7888592806
  H        21.5078131218       11.6980896671        3.3817169666
  C        21.9503016836       10.7167129678        3.4890077112
  H        21.0921977527       10.0260789820        3.7173669866
  C        22.8461940410       10.6508016270        4.7770395397
  C        22.7679672843       10.4328079509        2.2316165438
  C        21.9833753903       11.0255554956        5.9858554658
  H        23.4048606837        9.7071741342        4.9681933521
  H        23.6253549755       11.3438205659        4.6741033766
  H        22.0434240400       10.3039197136        1.4524690588
  H        23.3525899314        9.4998728129        2.3674704367
  H        23.4867742324       11.1986597224        2.0264742352
  C        21.4453690258        9.7438143331        6.6375541256
  H        22.4656137402       11.6520255153        6.7678922161
  H        21.2134013884       11.6750279467        5.6646818914
  C        20.4591594248        9.8496820938        7.8073611802
  H        22.2776799353        9.0815785371        6.9122550578
  H        20.9841617575        9.2179615112        5.8273487870
  C        19.1840859380       10.6807843721        7.6592904432
  H        21.0512276635       10.2546198861        8.6713383706
  H        20.1190126050        8.8399528911        8.1893788722
  C        18.1157014339       10.0071846178        6.7402971192
  H        18.7793068401       10.7989003920        8.6603549278
  H        19.3628756682       11.7620871035        7.3796312037
  C        16.7692432729       10.8286170606        6.7244485408
  H        17.8673655945        8.9955005662        7.0958168547
  H        18.4921512286        9.9894565226        5.7397349168
  C        17.0819208737       12.1641916279        6.0768615565
  C        16.3008256682       11.4896623888        8.0071060906
  C        15.7314005995       10.0363445227        5.9132255189
  C        16.7842323653       13.2347155873        6.8406875926
  C        17.6323569898       12.5398860850        4.8398349814
  C        16.2690047503       12.8624122375        8.0940067818
  C        15.8439862294       10.8321281982        9.1190190493
  H        16.2660288602        9.6756919125        4.9962468887
  H        15.3573868128        9.2447055667        6.5264385733
  C        14.5495978208       10.9945133499        5.4996847085
  S        17.3286444271       14.6766617112        6.1501625051
  C        17.7837327352       13.8917390044        4.6789262449
  H        17.8358041321       11.8381759972        4.0510139418
  C        15.8528474714       13.3973293062        9.2591737774
  H        15.8043586391        9.7587829640        9.0836233919
  C        15.3767175520       11.3843610939       10.3067346669
  H        14.8519859452       11.8354432136        4.9092456549
  H        13.9964860446       11.2548273976        6.3774492241
  C        13.4802676290       10.2511104978        4.6674913128
  C        18.3453120899       14.5970139053        3.5207529517
  C        15.3488869804       12.7181095405       10.3585643485
  H        15.8021124680       14.4907528856        9.2578197998
  C        14.9079925990       11.0117080053       11.5439021695
  H        12.4988763965       10.7774233330        4.7887917237
  H        13.3994750332        9.2511676052        5.0613971797
  C        14.0101179295       10.1395912528        3.2550267602
  C        18.3232442362       16.0072043287        3.2941634457
  C        18.9746177728       13.7479146601        2.4794467404
  C        14.8649571915       13.4612813104       11.5395282561
  C        14.6485030437       12.1265580455       12.3084124152
  S        14.6979729021        9.5486784485       12.4181771648
  H        14.7925596672        9.3756546638        3.2033576972
  H        14.4642969562       11.0600746816        2.9828828321
  C        12.8673068415        9.8612812014        2.2933077757
  N        18.0631516520       17.0345853901        4.2562052443
  C        18.6395761273       16.6109360072        2.0599384308
  C        19.3292870526       14.3139589239        1.2242701553
  H        19.3968137402       12.7416075656        2.7502493512
  C        13.5776908418       14.3396720517       11.3788095818
  C        16.0722643170       14.2729925038       12.1224747959
  C        14.2263365808       11.8172618396       13.5890472558
  C        14.1218525569       10.4430547210       13.8129600322
  H        12.7658993248        8.7671324395        2.4323589174
  H        11.9019601974       10.3277455348        2.5266909499
  C        13.5228258949       10.1455235291        0.8609157033
  S        18.2294743302       18.4760579591        3.4521066729
  N        18.6937837785       18.0049335842        2.0102019181
  C        19.0007293946       15.7637214073        0.9800999383
  H        19.7194082427       13.7494731981        0.5129543551
  H        13.8834150980       15.2224723121       10.7559678208
  H        13.3164810615       14.6092355201       12.4275668313
  C        12.4403688700       13.5781188336       10.7793125769
  H        16.3593621703       15.0497860272       11.4560699620
  H        15.7463563933       14.8930006029       12.9342086670
  C        17.2892454291       13.5079561023       12.6033197972
  H        13.9658638423       12.6004657369       14.2992518945
  C        13.9566711725        9.7282516080       15.1392602383
  H        14.3595102732        9.5289221488        0.5990074973
  H        13.7215484230       11.2215639986        0.6156364457
  C        12.4672693835        9.7975469136       -0.1848288367
  C        19.3185130702       16.4325970563       -0.2420822066
  H        12.7593904863       13.2353071224        9.8003080181
  H        12.2134460560       12.8320257093       11.4945931449
  C        11.1604467513       14.4445380670       10.6008042001
  H        17.8219112334       13.1887963866       11.7033583261
  H        16.9617918403       12.5282873322       12.9714711939
  C        18.1847699124       14.4054174214       13.5183279017
  C        13.9127778400        8.3041851420       15.3141385690
  C        13.7123632913       10.5520364424       16.3551347312
  H        12.2967817568        8.7682983614       -0.1360215945
  H        11.4907914914       10.1542215810        0.2194261735
  C        12.7337879110       10.3735771548       -1.5599509774
  H        19.2379173494       17.5513684896       -0.3424440679
  C        19.6612442774       15.9201425498       -1.4562614295
  H        11.1116539656       15.1424519177        9.7349011382
  H        11.0483110422       15.1442573666       11.4338824885
  C         9.9313348672       13.6456249991       10.7387421928
  H        18.1221653155       15.3789023345       13.1292240124
  H        17.6973886424       14.4507098958       14.4521391764
  C        19.6325295451       13.8308074791       13.7685655097
  N        14.0449546288        7.4365139605       14.2558869286
  C        13.5752009147        7.6953782072       16.5032101777
  C        13.3215879040        9.9245372743       17.5582389800
  H        13.5422878744       11.6144701886       16.2080738423
  H        12.8374059483       11.4100116095       -1.4475529299
  H        12.0960174582       10.1229828168       -2.3138717851
  H        13.6748527645       10.1019464729       -1.9157043186
  S        19.9382837344       14.2962063811       -1.8599129302
  C        19.6373897591       16.9013444021       -2.6095291109
  H        10.0692671642       12.6364350883       10.3849847987
  H         9.4886297802       13.5558865510       11.7782281112
  C         8.8698559560       14.3115611599        9.8424314031
  H        20.0560412595       13.2022461684       13.0249780935
  H        19.6414751353       13.2529028114       14.7213161385
  C        20.6430264493       15.0093871435       14.0137794512
  S        13.7997005541        5.9053176388       14.8234023447
  N        13.3624121760        6.2955625316       16.3119033442
  C        13.3066878881        8.4021478392       17.6539276345
  H        13.1229111235       10.5641743704       18.3971077029
  C        19.7986192451       14.8580674567       -3.5963731898
  N        19.9620062647       16.2048181637       -3.7165905051
  O        19.5297959930       18.1269014203       -2.5554003688
  H         8.2505008545       15.0079331596       10.4487929806
  H         9.3588221725       14.8630639197        9.0112182457
  C         7.9031359521       13.2568087825        9.2675820049
  H        21.5401623786       14.5054388580       14.4570459151
  H        21.0667263345       15.4666978376       13.1314217636
  C        20.1696888617       16.2731508231       14.7809094428
  C        12.9192541224        7.6529178415       18.8362709037
  S        20.3325222895       13.8894726714       -4.9649917805
  C        20.0158536351       16.8926173565       -5.0268289034
  H         8.3471321564       13.0712942345        8.2692550153
  H         7.8243471101       12.3344457650        9.8585236590
  C         6.4620791432       13.8112615422        9.0576120735
  H        19.5060589272       16.0596354471       15.5833622742
  H        19.5320386106       16.8484807760       14.1400025296
  C        21.2091000709       17.2508457521       15.2940946777
  H        13.0853548094        6.5597066056       18.6871522207
  C        12.7001792610        8.0834748635       20.1156405944
  H        20.6320240719       16.3600269570       -5.7250007779
  H        20.5874911450       17.8260487083       -4.9120087208
  C        18.5832308881       17.2716702201       -5.4894895991
  H         5.7584963170       13.2773808988        8.3873766267
  H         6.5566785725       14.8588778197        8.7075791753
  C         5.7628208979       13.7543074670       10.3855226215
  H        20.5767211456       18.0257838153       15.6346677683
  H        21.8467234098       16.8391629788       16.0525554952
  C        22.1975705279       17.7336968434       14.1687526156
  S        12.2452609432        9.7028812258       20.6022103941
  C        12.6075382628        7.0995510113       21.1593458184
  H        18.6543094167       17.5901975895       -6.5174123254
  H        18.2182439845       18.1730140733       -5.0150835019
  H        17.9083923412       16.4379993248       -5.4087987760
  H         6.0323487842       14.6955251696       10.9163766846
  H         4.6840655463       13.8120959670       10.2740658632
  H         6.0068211009       12.8851610266       11.0872779023
  H        22.6154246523       18.7270694878       14.4225652737
  H        23.0344830970       17.0457688152       13.8959983961
  H        21.6649956816       17.8818617098       13.2504612259
  C        11.9131443012        9.0014712393       22.1178951554
  N        12.0520115680        7.6808588541       22.2087143541
  O        12.8900876283        5.8860057402       21.0678178657
  S        11.3753502489        9.8863391045       23.5119114161
  C        11.7775748546        6.9636031007       23.4055993235
  H        11.8338395923        5.8716779480       23.2857825811
  H        10.7377932283        7.2656756905       23.7199099283
  C        12.8454615556        7.2323581612       24.4785282887
  H        13.5536021249        6.4712947079       24.5256855768
  H        12.3816154454        7.3511331092       25.4511166978
  H        13.3692137210        8.1642769925       24.3057901083
