352
 i =    18000, time =    18000.000, E =        25.2547535725
  H        11.7396057029        7.4468591459       31.2219247044
  C        11.7499407249        6.4265671574       31.6756027362
  H        12.8089220640        6.1722462599       31.5563067158
  C        10.8474835503        5.5531088531       30.7698527548
  C        11.5405055742        6.1514768362       33.2533599906
  C        11.2072956588        5.4124483652       29.3074074618
  H        10.7045081621        4.6261678153       31.3351988428
  H         9.8769774306        6.0103115804       30.8821849638
  H        10.4896260119        5.8332419198       33.4483597225
  H        12.1824274095        5.3010587513       33.5373437180
  H        11.7753822139        7.0657053573       33.7952462404
  C        10.4603693203        6.4754630817       28.4319567867
  H        10.7993691527        4.4599862425       28.9660120806
  H        12.2411827267        5.4727734307       29.1629882428
  C        10.5307041280        6.0441507347       26.9082620351
  H         9.4629252884        6.6940792788       28.8067801158
  H        10.9141570702        7.4304059240       28.6752395727
  C         9.2233767174        5.2698170540       26.4468678413
  H        11.4191203262        5.3499990161       26.8003299214
  H        10.7363097379        6.8942362392       26.2423204775
  C         8.0984909628        6.1681721310       26.0658578400
  H         9.4935505834        4.5984683840       25.6409301301
  H         8.8320896185        4.5799229652       27.2804893757
  C         6.8726298051        5.6104603332       25.3840347019
  H         7.8525454131        6.6120349569       27.0215590567
  H         8.5555892126        6.9396187911       25.4828837481
  C         6.4518544420        4.3050767072       26.0849643718
  C         7.2834555414        4.8556034548       24.1929997839
  C         5.7716051055        6.5526039293       25.0822715319
  C         6.7407738283        3.1173493396       25.3320055272
  C         6.0519769509        4.0095702172       27.3921169088
  C         7.2238369281        3.4584088355       24.1340405627
  C         7.9007519043        5.4959541715       23.0995841596
  H         6.1357409894        7.3142064316       24.4031697818
  H         5.5992632486        7.1779580151       25.9517040567
  C         4.4132138575        5.9573189718       24.6102210762
  S         6.4714350565        1.6915546517       26.1816688394
  C         5.9371629511        2.6408539338       27.5580444874
  H         6.0272176917        4.8244391317       28.1157201061
  C         7.7027097339        2.8120589203       23.0854388326
  H         8.0261836149        6.5541799946       23.0672939558
  C         8.3930043497        4.8001235309       22.0282230102
  H         4.5139963237        5.6860871495       23.5334933981
  H         4.3127343518        4.8848548393       24.8392421175
  C         3.1633662427        6.8184787379       24.9732128442
  C         5.5839281926        1.9885203658       28.8629435814
  C         8.3319546882        3.4699180516       22.0080750994
  H         7.6224222122        1.7328379183       23.0492869667
  C         8.9781012809        5.0649378706       20.8234040018
  H         2.3744087761        6.4512939344       24.2951964336
  H         3.4490997167        7.8270406231       24.7470728460
  C         2.6893991378        6.7973487642       26.4514640851
  C         5.6560565560        0.5879814058       29.0978806693
  C         5.3203107459        2.8445689202       30.0701612594
  C         8.8403140184        2.6020052798       20.8007773258
  C         9.1903014303        3.9750023461       20.0304612931
  S         9.4758407946        6.5362379113       20.0202418607
  H         1.9127628823        7.4694490070       26.6370134487
  H         3.4312593613        7.1652624564       27.1278920524
  C         2.2355923682        5.3517353438       26.9204569513
  N         5.8652847804       -0.4193150883       28.1494085936
  C         5.4174196616        0.0735462496       30.3503161835
  C         5.0490447587        2.2967262117       31.2953812129
  H         5.0654798154        3.8957907224       29.9711565293
  C         7.7582913151        1.7399194966       20.1989430588
  C        10.0954856355        1.7591659967       21.2011947651
  C         9.7067761580        4.3351269223       18.7262595992
  C         9.8303134249        5.6349106523       18.5884859426
  H         1.6042482117        4.8517574768       26.1826179873
  H         3.1919947635        4.7729458416       26.8175390830
  C         1.5135591379        5.2956239672       28.2302874158
  S         6.0019951381       -1.7742220918       28.9181861089
  N         5.7243525326       -1.2525476110       30.4239695326
  C         5.0975871004        0.8625661854       31.4990704324
  H         4.8613439511        2.9924077000       32.0761694884
  H         7.2824442764        1.0137343254       20.9331944857
  H         8.2307583892        1.1326740542       19.3872549881
  C         6.6446656340        2.6397003756       19.5227247836
  H        10.0950044128        0.8070283467       20.6534929094
  H         9.8769834998        1.4155782745       22.2161390394
  C        11.5008690699        2.4381464239       21.0039503380
  H         9.9214911316        3.5202469596       18.0584686582
  C        10.1245596419        6.3803454295       17.3019831747
  H         0.7906992686        4.3842837852       28.2393882530
  H         0.8235036775        6.2085875567       28.1794224946
  C         2.4778096311        5.2551585774       29.4461420687
  C         5.1070906959        0.2658153710       32.8076590481
  H         7.0508084787        3.3263559822       18.7830707298
  H         6.0269372511        3.1675220823       20.2273152201
  C         5.6913021423        1.6911996221       18.8549129240
  H        11.5890303854        3.4062108028       21.5507230614
  H        11.6467267315        2.6940432313       19.9277043464
  C        12.7347710262        1.5422304983       21.3303802104
  C        10.2105192733        7.8037514381       17.0829935983
  C        10.3735256193        5.5727666541       16.1048580623
  H         3.1196638116        4.3111082500       29.5213265519
  H         3.1469226569        6.1273442003       29.3915682440
  C         1.6773575741        5.3450451886       30.6815610618
  H         5.2078737614       -0.7708745603       32.7157300640
  C         4.8394130474        0.7751626665       34.0934064437
  H         5.4276689373        0.9079285541       19.5166493303
  H         6.2660561853        1.1403327994       18.0401951108
  C         4.4514009839        2.4158224513       18.1725264215
  H        12.7360820380        1.2412098650       22.4119340072
  H        12.6786867895        0.6497606028       20.7865973503
  C        14.1081551688        2.2312493074       21.0014699302
  N         9.9775544649        8.8040317242       18.0792162354
  C        10.5443984638        8.3470160993       15.9059330867
  C        10.6303944522        6.1154048347       14.8587613785
  H        10.3636608850        4.4903421061       16.0547359448
  H         1.0088064288        6.1811745784       30.7475661273
  H         0.9519040822        4.5165220846       30.7639016214
  H         2.3718642663        5.4421175782       31.5214255793
  S         4.4509563479        2.3761872366       34.4766254977
  C         4.7001240562       -0.2024789480       35.2120503860
  H         4.3949971524        3.3521064423       18.6214361415
  H         4.6759883791        2.5164757094       17.1423516127
  C         3.0927227861        1.6611412261       18.2810630392
  H        13.9304051714        3.0675940937       20.3303846192
  H        14.7338746547        1.4976295781       20.4530214378
  C        14.7960986657        2.6965697904       22.2818653810
  S        10.1243489650       10.2270463584       17.3791462954
  N        10.6786640929        9.7352198830       15.9314220425
  C        10.8122785952        7.5665473998       14.7914062583
  H        10.8003993512        5.4224583869       14.0833215391
  C         4.0948678755        1.7129111857       36.1556986545
  N         4.2204558240        0.3600739323       36.3118959731
  O         5.0869214499       -1.3087880839       35.1493537793
  H         2.2841668964        2.3343662963       17.9327581982
  H         2.9338211688        1.6121778222       19.3448718987
  C         2.9315353489        0.3018177734       17.6049215749
  H        15.4149070917        3.5958178054       22.0243687596
  H        14.0427738933        3.0823770036       22.9880348869
  C        15.8040236298        1.8011036140       22.9724410945
  C        10.9668483178        8.2553621001       13.5923326226
  S         3.7542070689        2.6776000716       37.5720254346
  C         4.2241319211       -0.3625483084       37.5993287748
  H         2.8529460062        0.3429532759       16.5428970842
  H         3.8428367178       -0.2059210644       17.7354542608
  C         1.8706854708       -0.4810765102       18.3448103406
  H        16.0387515621        0.9640752313       22.3522160487
  H        15.3357738071        1.2455849686       23.7979869592
  C        17.0723528249        2.4657968433       23.4245593003
  H        10.5762068161        9.2691973183       13.6343476155
  C        11.5063750920        7.9993356349       12.3758687451
  H         3.7412790206        0.1338957065       38.4090266630
  H         3.7964271316       -1.3390618259       37.5046869267
  C         5.6824046747       -0.4811054773       38.0352050509
  H         1.1196825060        0.1892727481       18.7505601734
  H         2.3170833839       -0.9715763611       19.1274829677
  C         1.2926928629       -1.5455478209       17.3882338691
  H        16.8673688252        3.5209137993       23.5859612063
  H        17.3316756097        2.0594729527       24.3339592787
  C        18.2519065630        2.3217111305       22.4744855407
  S        12.1415469010        6.5214719542       11.8370575469
  C        11.4688759833        9.0755952511       11.3661263482
  H         6.0596164810       -0.7377227464       39.0460078354
  H         6.1977203977       -1.2458495893       37.4333193307
  H         6.1557718131        0.3777020190       37.7567276480
  H         0.6073268882       -2.2809007849       17.8616129035
  H         2.0440158722       -2.0595714129       16.8713965939
  H         0.8175020630       -1.0151621963       16.5516117370
  H        19.1151191775        1.6282670040       22.6656149187
  H        18.6628072649        3.2981839140       22.2609663369
  H        17.9185335935        1.9446535661       21.4960239381
  C        12.5964105188        7.4480428419       10.3644140855
  N        12.0808322964        8.6541980624       10.2838894221
  O        10.9808040007       10.1908965628       11.5454321373
  S        13.5493379869        6.8942688564        9.0040495914
  C        12.0370817049        9.4974619276        9.0686420320
  H        12.0585770947       10.5275904100        9.3241878756
  H        12.9097422939        9.5236365632        8.5152093110
  C        10.8261331522        9.2373699542        8.1305594180
  H        10.8717874760        8.3075214577        7.5190098982
  H         9.8357224319        9.2352859943        8.6494031818
  H        10.8255714708       10.0486587490        7.4467118510
  H        20.9149278449       11.1816294579        3.3294467572
  C        21.4540156351       10.2063155136        3.3911309165
  H        20.7041531826        9.3897151339        3.5129994994
  C        22.4191568631       10.1989052257        4.5882325533
  C        22.1750133820       10.2620308686        2.0079044937
  C        21.7104688322       10.3123369947        5.9320468461
  H        22.9472210103        9.2618816636        4.5852825178
  H        23.2256503709       10.9439877106        4.5954699823
  H        22.5841565135        9.3427071723        1.6048092526
  H        23.0190542045       10.9964537278        2.2497060236
  H        21.3821734785       10.6409418858        1.3020401710
  C        20.9542657499        8.9966307084        6.4238243606
  H        22.4765087475       10.6535227628        6.5781761674
  H        21.0410842450       11.1644349040        5.8036762586
  C        20.2564590459        9.1155186989        7.7472661702
  H        21.7288807615        8.2429736832        6.4336357173
  H        20.2058279595        8.6935138999        5.6928011532
  C        19.0373271247       10.1010009994        7.7393913521
  H        20.9375035098        9.5696105879        8.5048571118
  H        19.9502506012        8.0904233388        8.0753394468
  C        17.8644682269        9.5803951390        7.0352387395
  H        18.7465054452       10.3591355202        8.7909737671
  H        19.3856691571       10.9746586646        7.2253303978
  C        16.5768899416       10.4493077141        6.8990615710
  H        17.6343981775        8.7798444354        7.6355993462
  H        18.2801318614        9.3511987827        6.1073511795
  C        16.9736823242       11.8377576248        6.2037658303
  C        16.1789122672       11.1686197847        8.1792681101
  C        15.3993640617        9.7782352474        6.2614586292
  C        16.7691794783       12.9326005929        7.0580766324
  C        17.3753752445       12.2028433091        4.8873797021
  C        16.3319733435       12.5211175902        8.2875678467
  C        15.7340156293       10.5326154186        9.3630577138
  H        15.6851627059        9.0732811827        5.5121545763
  H        14.9166413678        9.2036433176        7.0148261124
  C        14.3316129987       10.7795570281        5.6730323559
  S        17.2571148829       14.4313744323        6.3320664558
  C        17.5281062980       13.5443564058        4.8159457937
  H        17.4965664936       11.4126553870        4.1243217362
  C        16.0913940701       13.1593562048        9.4790195192
  H        15.6213089973        9.4437770730        9.3324939028
  C        15.4733563158       11.1129054205       10.5249991032
  H        14.7327965935       11.4912650043        4.9011322939
  H        13.8383034093       11.3779655027        6.4660115278
  C        13.1389308566       10.1079901945        4.9810010946
  C        18.0732519053       14.2011850770        3.5773672550
  C        15.6677367018       12.4924813880       10.5903852718
  H        16.1925746697       14.2460511644        9.5214691632
  C        15.1296911091       10.7381715981       11.7704947239
  H        12.2854576172       10.5763838247        5.5485368978
  H        13.2188053384        9.0101162032        5.1419697586
  C        12.9963790590       10.3577230580        3.4547907132
  C        18.1076918322       15.5805941088        3.3982079108
  C        18.5277639156       13.2891264531        2.4389619230
  C        15.3126201099       13.1890798387       11.9351221289
  C        15.0167504116       11.8448373777       12.6018601929
  S        14.8561810148        9.2590165793       12.5977291068
  H        13.7086045098       11.1621507452        3.0797689128
  H        12.0147763841       10.8321523282        3.2802883798
  C        12.8949445946        9.1692803761        2.5069235614
  N        17.6634062372       16.6581540576        4.2084412166
  C        18.4581241102       16.0759066814        2.1934318358
  C        18.9415515024       13.8107549383        1.1737085006
  H        18.4485801228       12.1962910569        2.4666974253
  C        14.0707891445       14.0541157480       11.7751319530
  C        16.4696107284       13.9601578748       12.6309598862
  C        14.6695193380       11.4878010682       13.8210429334
  C        14.4742511781       10.1705820341       14.0145729121
  H        13.7760600687        8.6146971388        2.6757490036
  H        12.0093288467        8.5632411315        2.7181888004
  C        12.8435828271        9.6430679716        1.1031447117
  S        17.5235174281       18.0363885371        3.3867525716
  N        18.2871222532       17.4549488055        2.0847156814
  C        18.8650413204       15.3205677444        1.0345127247
  H        19.1401099582       13.1715024623        0.4287094567
  H        14.2951118001       14.7231627984       10.9697324972
  H        14.0012237629       14.6582753156       12.6674916522
  C        12.7484644180       13.3567963233       11.3037066629
  H        16.6007617503       14.9171065262       12.1740550216
  H        16.1335559474       14.2320646987       13.6477657064
  C        17.7840201444       13.2499734930       12.8030144466
  H        14.4616183115       12.1822010608       14.5962507840
  C        14.0617308954        9.6246055694       15.3456295264
  H        13.8453110177        9.6838984435        0.7373225424
  H        12.2970154220       10.5981523914        0.8184387918
  C        12.0150369804        8.6260012383        0.2890380441
  C        19.0342557465       16.0178064608       -0.1883369650
  H        12.7613469708       12.8926792835       10.3120096998
  H        12.5871240795       12.5533115079       11.9691895159
  C        11.5366922262       14.2730800839       11.2333945905
  H        18.1249200522       12.7760744402       11.8514353653
  H        17.7174212048       12.3765786717       13.5401676064
  C        18.9313683890       14.2085171258       13.2676675295
  C        13.9556745696        8.2181108930       15.4868541439
  C        13.7953740389       10.4152575373       16.5561553998
  H        12.4364433408        7.6403524554        0.2537897141
  H        11.0450321881        8.5460036670        0.7598389006
  C        12.0441188653        9.1153656739       -1.1268736813
  H        18.7688261692       17.0684473119       -0.2323522818
  C        19.2155895883       15.6376895666       -1.4929514624
  H        11.6891244678       15.1109409859       10.5040143522
  H        11.3249313236       14.8792904829       12.1347604130
  C        10.2490752934       13.5560534025       11.1136166930
  H        18.9815445731       14.9713764139       12.5411256225
  H        18.4348974733       14.5339701766       14.2257717965
  C        20.2383444763       13.5173856685       13.5642320272
  N        14.0731895119        7.2667844905       14.4557524320
  C        13.6107414931        7.5586746021       16.6697349252
  C        13.5113046907        9.7723489176       17.7758734241
  H        13.7905907421       11.4851931157       16.5472381697
  H        13.0555232000        9.3516375261       -1.3071469936
  H        11.3404174996        9.9802084581       -1.3648381871
  H        11.8576297026        8.3201125034       -1.8151682239
  S        19.3647346065       14.0950071519       -2.1163190188
  C        19.2212282855       16.7246921589       -2.4642646706
  H        10.5768083907       12.5504844697       10.8686094322
  H         9.8265578389       13.6408662888       12.1291803916
  C         9.2903887352       14.1900538734       10.0584021791
  H        20.6893799940       13.0926328803       12.6795063801
  H        20.0777778139       12.7419090488       14.3499625461
  C        21.2749722218       14.4387943936       14.2839458020
  S        14.0560128163        5.7901996417       15.1035158735
  N        13.7487945070        6.1735273595       16.6488448274
  C        13.4873926270        8.2784241830       17.8698719262
  H        13.3468779308       10.3749531985       18.6797079017
  C        19.4940359029       14.7753846819       -3.6860969027
  N        19.4461400633       16.1466406557       -3.6690856524
  O        19.1619061043       17.9447817007       -2.3050749125
  H         8.7115529837       14.9713643290       10.5428641526
  H         9.8289349029       14.6810391124        9.2697572864
  C         8.5293765344       13.0585536116        9.4117407472
  H        21.2998101385       14.3379204596       15.3152882893
  H        22.2819962226       13.9912020742       14.1142928118
  C        21.2101336454       15.9055995988       13.8750595450
  C        13.2456472897        7.4956327103       19.0469519996
  S        19.9261188561       13.9671903965       -5.0694263741
  C        19.5040534098       16.9658630314       -4.8724297030
  H         9.0344274282       12.7874610915        8.5049451228
  H         8.5679314826       12.1890245625       10.0312727028
  C         7.0877192137       13.3794549929        9.0680702162
  H        20.3419565200       16.4382196368       14.3885584980
  H        21.1274823291       15.9988013083       12.7608265452
  C        22.5281628379       16.5988422029       14.2156184442
  H        13.6006949605        6.5082920871       19.1499265955
  C        12.8104386763        7.9123255325       20.2880435318
  H        20.2058356181       16.4925911472       -5.5455413880
  H        19.8708118958       17.9549500864       -4.6899905022
  C        18.1355892011       17.1614798565       -5.5265995620
  H         6.8004772559       12.9156172776        8.0608885834
  H         6.7483763765       14.4098383701        8.9838011797
  C         6.2121271511       12.7375106045       10.1063208775
  H        23.3302606030       15.8898481465       14.1520741226
  H        22.7204552679       17.4677486578       13.5488835893
  C        22.4172505701       17.0941051016       15.6477337573
  S        12.2020797129        9.4284977949       20.7708037555
  C        12.6845810275        6.7774883374       21.2385082574
  H        18.0451799333       18.1715361856       -5.8685503760
  H        17.2903250280       17.0616788105       -4.8825778238
  H        18.0932869899       16.4155124216       -6.3714846104
  H         6.3255272129       11.6718976724       10.1685419051
  H         6.2114025982       13.2696899960       10.9820810480
  H         5.2218389912       12.8746638603        9.7657181396
  H        22.2142291684       16.3303022367       16.4262920196
  H        23.3639621613       17.4336185406       16.0178735777
  H        21.6901906613       17.9749174657       15.7630247288
  C        11.8440323822        8.5484217937       22.2593601321
  N        11.9550153434        7.2260516091       22.2509130168
  O        13.0471621524        5.5590764730       21.0490478812
  S        11.0005037489        9.1752274773       23.6400255690
  C        11.5183168808        6.2797703337       23.3099363116
  H        11.1218511558        5.4849397068       22.7061780996
  H        10.6695143809        6.5558738269       23.9074818128
  C        12.7873804016        5.8688707011       24.1851703642
  H        13.4462824442        5.1648288747       23.7575820696
  H        12.5040595601        5.3500520101       25.0592078099
  H        13.2875274240        6.7670570022       24.5923344596
