352
 i =    33700, time =    33700.000, E =        24.8668093959
  H        11.7057963115        6.9128379137       32.3019270718
  C        11.3822489600        5.8887761553       32.2716042317
  H        12.2274466002        5.1974918020       32.0713216580
  C        10.3802322645        5.8174463897       31.1242454649
  C        10.9211219677        5.6449454382       33.6752126220
  C        11.0068647304        5.5187429226       29.6968947900
  H         9.6808038797        4.9685643687       31.2515836379
  H         9.7449577672        6.6096225716       31.0961536274
  H        10.9718367782        4.5797804904       33.9650959933
  H        11.5889080996        6.2202882696       34.3019669889
  H         9.9695066573        6.0846306789       33.8193559007
  C        10.0584033835        5.8236892861       28.5382944394
  H        11.2146762312        4.4706005350       29.8352222419
  H        11.9608412319        5.9762237671       29.6152304905
  C        10.7279575554        5.8055061547       27.1450959394
  H         9.0654219923        5.3232975815       28.6687830036
  H         9.8772003130        6.8957015512       28.6971633681
  C         9.8471726935        5.2046081652       26.1043672052
  H        11.6190037391        5.1380932235       27.1593297577
  H        11.0552117182        6.7731234833       26.8111276380
  C         8.4840576348        5.9948439471       25.9023763093
  H        10.3207187035        5.0449974355       25.1305666381
  H         9.6441306609        4.2110053026       26.5114747446
  C         7.3188314492        5.2049005251       25.2824068741
  H         8.1046219378        6.3541310079       26.8503849223
  H         8.7926602361        6.8242364281       25.2732948937
  C         7.0223813921        3.8300247670       25.9396844952
  C         7.8092596515        4.5301396807       24.0761753748
  C         6.0123648683        5.9999521861       25.1229623529
  C         7.2151357584        2.7629698205       25.0797183871
  C         6.6471236145        3.3388568944       27.1849950822
  C         7.8143115546        3.2043066513       23.9115431329
  C         8.3347688212        5.3315449732       22.9407423779
  H         6.2033041387        6.8657394807       24.4340850975
  H         5.6294087098        6.4891738789       26.0687770377
  C         4.8713347851        5.2269635415       24.3979336065
  S         6.7485373611        1.2280385607       25.7484687774
  C         6.3958038924        1.9696070002       27.2242739603
  H         6.5547524672        4.0722443396       27.9311724112
  C         8.3511606341        2.6564131008       22.8056284431
  H         8.2736053373        6.4034188305       22.9272518681
  C         8.8733535303        4.7098670187       21.8482025411
  H         5.0135625186        4.8039047237       23.4257985892
  H         4.5204435461        4.4341552163       25.0371057638
  C         3.6732539131        6.0419650129       24.3507637840
  C         5.8917806956        1.2399269146       28.4669310851
  C         8.8736861007        3.3899051906       21.7243783075
  H         8.4283951866        1.5974046449       22.9030181671
  C         9.3129614072        5.0892506605       20.6086029429
  H         2.9675490773        5.6653726002       23.5865683294
  H         3.9179642506        6.9099256833       23.7560639979
  C         2.9707436277        6.5777730085       25.6397533178
  C         5.9508296115       -0.1242250192       28.7087513741
  C         5.4459396950        2.1049601517       29.6346472959
  C         9.4238467336        2.7315815508       20.4594784338
  C         9.6477527727        4.0591389720       19.8057869528
  S         9.3980213312        6.6125085567       19.7485267230
  H         2.1671333706        7.2759441925       25.3709974839
  H         3.7166368774        7.0135688501       26.2814472248
  C         2.3656554388        5.4440723928       26.4832384549
  N         6.4767736573       -1.1080977557       27.8001984124
  C         5.6135748146       -0.6875189033       29.9490194900
  C         5.1416104746        1.5288111412       30.8282911393
  H         5.3004551315        3.1778421530       29.5144100001
  C         8.4264295226        1.8976362302       19.6657826939
  C        10.7443410333        1.9650464529       20.6076025986
  C        10.1381013197        4.4681856267       18.5801928917
  C         9.9897101426        5.8362108388       18.3534538947
  H         1.7201870682        4.7984254393       25.8183456404
  H         3.1999325608        4.7679683774       26.7755018509
  C         1.5710581443        5.8305804333       27.7336662212
  S         6.4881281039       -2.4836940436       28.5803341983
  N         5.9172034645       -2.0559209683       30.0565677037
  C         5.2911043501        0.0780180767       31.0772271653
  H         4.8254844426        2.2023073716       31.6337402193
  H         7.7491361890        1.3320260817       20.3516015214
  H         8.8462847674        1.2024675891       18.9872786308
  C         7.3970295906        2.7037665330       18.7998096277
  H        10.9550688603        1.5327155931       19.6084732580
  H        10.5108192002        1.2455323450       21.3677703621
  C        11.8310809179        2.8139957560       21.2476507159
  H        10.4445425663        3.7250013121       17.8577094748
  C        10.2323693776        6.5296173976       17.0201869028
  H         1.0118943114        5.0347151351       28.1178821843
  H         0.8907254347        6.6318454440       27.4214763004
  C         2.3673574784        6.4162227699       28.9294127062
  C         4.8955746814       -0.5862382075       32.2468976894
  H         7.9157097613        3.0589456913       17.8765704403
  H         7.0323451099        3.6097595844       19.2335645867
  C         6.1373730288        1.9538012343       18.3817674157
  H        11.4994930589        3.0989399383       22.3011718530
  H        12.2054237522        3.6262094404       20.6283211417
  C        13.0483279317        1.9103154796       21.4273873043
  C        10.2138554127        7.8745475736       16.8191280615
  C        10.3164901520        5.6671929044       15.7954217642
  H         2.7667082611        7.4049294924       28.6953715144
  H         1.6924215675        6.4968819866       29.7723758963
  C         3.5982585801        5.6062868755       29.3921751296
  H         4.7752576644       -1.6638529308       32.1111597912
  C         4.6678076813       -0.1629024523       33.5503748666
  H         5.7533851982        1.3334989280       19.2282659335
  H         6.4224559417        1.1318020745       17.7419833112
  C         5.0343355114        2.8368094238       17.8173332163
  H        13.0727521337        1.3950098324       22.3517802937
  H        13.0164443938        1.2063171104       20.6198946783
  C        14.3420923437        2.6283292492       21.2372420193
  N        10.0749173676        8.8321115666       17.8643187951
  C        10.3857854130        8.4627060579       15.5694620610
  C        10.4884737885        6.2430114389       14.5207412119
  H        10.1597677847        4.6089368870       15.8373839300
  H         3.5345603787        4.5336870123       29.0376771364
  H         4.4588686980        6.0673972036       28.9251759266
  H         3.8351790657        5.5662899758       30.4486919090
  S         4.5222033537        1.4830416423       34.1128590878
  C         4.6142109274       -1.2432548186       34.6203434937
  H         4.9240348335        3.7562911707       18.3845298183
  H         5.1696364356        3.1298304924       16.7733162080
  C         3.6737532182        2.1720696804       17.7468509428
  H        14.2361969498        3.2589530669       20.3335952731
  H        15.2385213314        2.0443487678       21.0313054457
  C        14.7218577395        3.3030764922       22.5100682574
  S         9.9574223965       10.2700767018       17.1433761519
  N        10.3459185504        9.8433138617       15.5801987090
  C        10.5522674925        7.7114700587       14.4156852278
  H        10.6789274589        5.6262846749       13.7323375593
  C         4.3290429798        0.7396623228       35.7345721211
  N         4.3679727629       -0.5656775132       35.7597212561
  O         4.7350817388       -2.4268340814       34.4032382297
  H         2.9631530982        2.8865051586       17.3976015794
  H         3.4843572828        1.8690632494       18.7704910063
  C         3.6865677054        0.8963624789       16.9736602999
  H        15.4148153667        4.1224184225       22.2621420541
  H        13.9104059978        3.8509716064       23.0238767240
  C        15.4268576238        2.3205590682       23.4910623711
  C        10.7803442488        8.4205883863       13.2045543871
  S         3.8017609432        1.5448544377       37.2362216827
  C         4.2504969280       -1.2716389157       37.0975944760
  H         3.6606498181        1.0712286091       15.9658341738
  H         4.5999892139        0.3164552766       17.0978640124
  C         2.6120316400       -0.1778346798       17.3644675929
  H        15.3512975519        1.2300590967       23.2566004421
  H        14.9816703182        2.3519516455       24.4569527506
  C        16.9313008510        2.5108473980       23.7130293995
  H        10.4724357284        9.4309879580       13.2998064397
  C        11.4454933229        8.1148159560       12.0040560061
  H         3.4229601687       -0.8204655546       37.6798152742
  H         3.9100152015       -2.2777260122       36.8566023512
  C         5.6560854829       -1.3583741716       37.7222431155
  H         1.7326665385        0.2393220796       16.9417755692
  H         2.5286174515       -0.2451336184       18.4134242361
  C         2.8465349979       -1.5134996501       16.7019549095
  H        17.0896344268        3.5125638653       24.1006435590
  H        17.3339084516        1.8254181583       24.4951542763
  C        17.7810824829        2.2913885151       22.5109270643
  S        12.1261659056        6.5805589835       11.4909606002
  C        11.6073969836        9.2574368906       11.0818711236
  H         6.2515054492       -0.4554860590       37.5351263177
  H         5.6956945215       -1.4161862113       38.8294372216
  H         6.1610185276       -2.2722239385       37.3360509012
  H         2.5998271528       -2.3717005448       17.3249134322
  H         3.9406023637       -1.6456429972       16.5008037699
  H         2.2158419556       -1.6938577104       15.8314132730
  H        17.6796279295        1.2978783328       22.1542548312
  H        18.8299972379        2.4477318468       22.6118616897
  H        17.4974821323        2.9135416598       21.6659156389
  C        12.5667334115        7.5159411313       10.0145508457
  N        12.3032741693        8.8186125798        9.9884837446
  O        11.1605667725       10.3960464257       11.3022121706
  S        13.3698955120        6.8428943988        8.6191471855
  C        12.5074233242        9.6635354279        8.8104858288
  H        12.8408490088       10.6827159363        9.0561229904
  H        13.3746927295        9.3505027688        8.2779321090
  C        11.2805799036        9.7516935804        7.8430604748
  H        11.3655796506        8.9663960868        7.0397839235
  H        10.2916262899        9.7212216968        8.3533723213
  H        11.3009988432       10.6913822369        7.2347943495
  H        21.3620224549       11.4536730444        3.1108768154
  C        22.0829202313       10.6204100205        3.0621532632
  H        21.5008973654        9.7394693525        3.1678924069
  C        22.9007332891       10.8025699788        4.3473878649
  C        22.8678420107       10.6114698650        1.7416848963
  C        21.9823026863       11.0162082815        5.5767306692
  H        23.4718360932        9.8662704992        4.4107426997
  H        23.6144039987       11.6953239617        4.3002897426
  H        23.6916019363       11.3457525058        1.7760528141
  H        22.3663454178       10.9684363791        0.8948707803
  H        23.2879831029        9.5678386463        1.4664873745
  C        21.4296769039        9.7334104361        6.1355556437
  H        22.5158947307       11.5742221325        6.3879742306
  H        21.1611506679       11.7381769315        5.2497056152
  C        20.7895940481       10.0228820361        7.5245931250
  H        22.1539262231        8.9739601425        6.4157007422
  H        20.7197743879        9.1677550323        5.5427528238
  C        19.3906059797       10.6900989159        7.5879544158
  H        21.4710887733       10.5001309325        8.1784184852
  H        20.5812155380        9.1037027435        7.9986448708
  C        18.1977830659        9.9126396997        6.9793450898
  H        19.1608916342       10.9887023878        8.6421867862
  H        19.4930639105       11.6010370576        7.0134291811
  C        16.9198003519       10.8147541175        6.7264978763
  H        18.0585230863        9.0399799382        7.5879933878
  H        18.5465848852        9.5576371409        6.0216590177
  C        17.2164811081       12.2650086140        6.1619617635
  C        16.5432829176       11.4948963497        8.0739433200
  C        15.7431632387       10.0834321863        5.9888500732
  C        17.0601416263       13.2610646435        7.0344036153
  C        17.4659985331       12.7919380544        4.8929975776
  C        16.5686198342       12.7959493038        8.2113379585
  C        15.9710537181       10.8163521463        9.1571037239
  H        16.1823582741        9.8494206257        5.0525468882
  H        15.4820058491        9.0650347552        6.3404086539
  C        14.5013267994       10.9373611581        5.8146303198
  S        17.3091170819       14.8438134377        6.3929312083
  C        17.6702383729       14.1210056049        4.8690485024
  H        17.6408074358       12.0892211975        4.1285647162
  C        15.9925597412       13.3824641218        9.3437646691
  H        16.0558270461        9.7370680108        9.0963062288
  C        15.5189916699       11.3914912115       10.2639487730
  H        14.7473239580       11.8554663517        5.3473244028
  H        13.9875478871       11.1379458725        6.7351623564
  C        13.5358232931       10.2247186090        4.8162742427
  C        18.2754389021       14.8362372326        3.7447040380
  C        15.4698580758       12.6904274015       10.3929891485
  H        15.9336488945       14.4458894453        9.2893611475
  C        15.0007708619       10.9778363606       11.4740683624
  H        12.6463301781       10.7707042426        4.6614547923
  H        13.2329158629        9.2892441177        5.2858579633
  C        14.1087204660        9.9794973643        3.4192733951
  C        18.1986887473       16.1854219059        3.4629048857
  C        18.8247000053       13.9754466155        2.6354144454
  C        15.1669542907       13.4675385615       11.6031340985
  C        14.8124184151       12.0698489090       12.2567216777
  S        14.7104514850        9.4528014069       12.2882516143
  H        14.8399687935        9.1779944027        3.3501545657
  H        14.7116899113       10.8739898122        2.9995561139
  C        13.0771330499        9.8788501567        2.3335890418
  N        17.7377599302       17.1357388439        4.3671005810
  C        18.5090725243       16.6469532050        2.2098425245
  C        19.2864244678       14.4182800182        1.4152884047
  H        18.7706712125       12.8651908598        2.5993445093
  C        13.9869922345       14.3842587629       11.4433882235
  C        16.3614164755       14.2776140491       12.0832148444
  C        14.4310542260       11.6591487875       13.5120016209
  C        14.5545281207       10.3117598763       13.7316153622
  H        12.5876082695        8.9191763948        2.3728445052
  H        12.1953800281       10.5370753042        2.4435361104
  C        13.6986980958       10.1374677066        0.9652881256
  S        17.6801918791       18.5311267974        3.4998902115
  N        18.2330301215       18.0418660671        2.0427952478
  C        19.0097661166       15.8501145413        1.1238166024
  H        19.6847815720       13.7903132970        0.6616330859
  H        14.1751220694       15.1045060872       10.7023327088
  H        13.8348226319       15.0266718132       12.2928726942
  C        12.6434932089       13.6078142561       11.0881689547
  H        16.7861096718       14.8532802193       11.2668468284
  H        15.9185537823       14.8162996149       12.8989323245
  C        17.5645732569       13.5429840826       12.7650812971
  H        14.0889493382       12.3573977661       14.1983641041
  C        14.2227622815        9.5528754796       15.0472350138
  H        14.6940219864        9.6680696374        0.8885792113
  H        13.8274125015       11.1721267026        0.8919583048
  C        12.7095083453        9.8171251262       -0.1083077041
  C        18.9747456071       16.3723071741       -0.1859899977
  H        12.7012952622       13.1331042718       10.1001383930
  H        12.3275622725       12.7973770451       11.7986832810
  C        11.3985114500       14.5637317008       10.9034772077
  H        18.0090582014       12.9224264958       12.0284748285
  H        17.2059543463       12.8694562935       13.5600918509
  C        18.5088915575       14.5206544860       13.4467826946
  C        13.8798598897        8.1801001229       15.2090793951
  C        14.2569993755       10.3430025023       16.3171020792
  H        12.3697941452        8.7685285580       -0.1398979624
  H        11.8532963521       10.4029711210        0.0775549309
  C        13.2797814599       10.2629336746       -1.4747254524
  H        18.7570979614       17.3465090651       -0.2238623156
  C        19.2778330355       15.9058404771       -1.4466960763
  H        11.6139858626       15.4537800345       10.3484427650
  H        11.0591524587       14.8968901258       11.9050165946
  C        10.4045174443       13.6987055029       10.1040531294
  H        18.9088096272       15.3056531270       12.7784028360
  H        17.8555687936       15.0554485369       14.1683393792
  C        19.7107766146       13.9720721626       14.2346093355
  N        14.0056496570        7.2248517508       14.2417066214
  C        13.7050113530        7.6797628610       16.4899273100
  C        13.7484700554        9.8519114867       17.4931469522
  H        14.4515720787       11.3431552541       16.1976748920
  H        14.0341349374        9.7256435191       -1.9209477562
  H        13.4915287476       11.3198308893       -1.6078788312
  H        12.4567374268       10.1091421363       -2.1078276395
  S        19.8283858952       14.2850447769       -1.9170066392
  C        19.1772363713       16.8351364514       -2.6400984826
  H        10.6697958425       13.7653728561        9.0147931684
  H        10.4847338119       12.6567727767       10.3599461513
  C         8.9352220470       13.9923056784       10.0959129292
  H        20.1399788071       13.1048722663       13.7081138342
  H        19.3740464566       13.4591723536       15.0967380643
  C        20.8581134393       14.9573151965       14.5159258506
  S        13.8871884021        5.8205790949       14.9152623477
  N        13.6212084912        6.2463597199       16.4561158454
  C        13.6372771038        8.4384858792       17.6961844161
  H        13.7098784077       10.4788674679       18.3857732802
  C        19.9751205253       14.9065629462       -3.5465194413
  N        19.7396776919       16.2340453777       -3.7480672101
  O        18.9111105671       18.0609389382       -2.5925219174
  H         8.4819783559       13.9653580222       11.0500061269
  H         8.7461363174       14.9321471282        9.6456910047
  C         8.0459112319       13.1685014289        9.1837443581
  H        21.6939052816       14.5154487539       15.0111786797
  H        21.2845097742       15.2574923122       13.5643774549
  C        20.2973324185       16.1579446949       15.3161995951
  C        13.2696846623        7.7504394332       18.9067038804
  S        20.5525716057       13.9506602674       -4.9773034227
  C        19.9746050548       17.0096351697       -4.9115117608
  H         8.6222978460       12.8984717756        8.3340397701
  H         7.8837498539       12.2253710213        9.6350438295
  C         6.6965600755       13.9933412310        8.9033007256
  H        19.5193820796       15.8024353915       15.9841760618
  H        19.8859062101       16.9051181015       14.6433663542
  C        21.4004927725       16.9142137658       16.1193936077
  H        13.2790128066        6.6826248812       18.9367701280
  C        12.6787285664        8.1374327153       20.0975961419
  H        20.7234893265       16.7738799677       -5.6163344071
  H        20.1784391396       17.9736434323       -4.5165268781
  C        18.6504259960       16.9059676079       -5.6585102534
  H         6.2086998438       13.4378979921        8.0806441151
  H         6.8804319435       14.9784092929        8.4775282409
  C         5.8653574485       14.1244740506       10.1457223708
  H        20.8050621487       17.6524820218       16.7155220421
  H        22.0070649261       16.1888599296       16.7043671904
  C        22.4298078859       17.6021511060       15.2919543678
  S        12.0982618049        9.6864114308       20.4125318600
  C        12.4236907413        7.1991720825       21.1819518004
  H        18.1414343563       15.9523745191       -5.5370026396
  H        18.7556078465       17.0953343345       -6.7222993984
  H        17.9110142503       17.6447567043       -5.4375330619
  H         6.1239458608       15.0343696977       10.7537478829
  H         4.8507781343       14.3730398653        9.7373340002
  H         5.9399057479       13.1902119544       10.6304624347
  H        22.0814869709       18.5490386905       14.8563919249
  H        23.2973593747       17.8326377111       15.9277367681
  H        22.8517956621       16.9570432805       14.4766748050
  C        11.5930556538        9.1371507543       21.9931932268
  N        11.8150581643        7.8521951478       22.2129598749
  O        12.7613049825        6.0338400105       21.1196201681
  S        10.7040832221       10.0829092641       23.2030734838
  C        11.5092945976        7.1299422139       23.4555323124
  H        10.8313477670        6.2854587578       23.2108350782
  H        10.8873617159        7.6368199913       24.1725692943
  C        12.8080600697        6.4541265765       24.1647902051
  H        13.6896728718        6.7842507021       23.6130921645
  H        12.8642176477        5.4141530006       24.2692620730
  H        12.9996576280        6.8531622795       25.1625368847
