352
 i =    87600, time =    87600.000, E =        25.0418552623
  H         9.9663790181        6.4197023820       31.4157550426
  C        10.9015063864        6.4974456748       31.8579251245
  H        11.0405325615        7.4160276461       32.3992649384
  C        11.9814983213        6.3538408869       30.8225739074
  C        10.8166020043        5.3842055646       32.8420584285
  C        11.5233805667        5.3667570155       29.6899022063
  H        12.0724322972        7.2999331240       30.3255795755
  H        13.0208158743        6.1686360348       31.1735841578
  H        11.1473626722        4.4286540975       32.5196520884
  H        11.5223734720        5.7158827696       33.6010982542
  H         9.8690413094        5.3185053814       33.3781873735
  C        10.4262237343        5.9704668883       28.7534682290
  H        11.2612573805        4.4846911543       30.1396137678
  H        12.4429630569        5.2075702853       29.1300761852
  C        10.7700517513        5.6872676055       27.2528633403
  H         9.4734944348        5.5178649106       29.0236881223
  H        10.4161971488        6.9835294959       28.8552402842
  C         9.6509546877        4.9411935939       26.5020685014
  H        11.6792280111        5.0644753709       27.1512047926
  H        10.9398681332        6.6393972525       26.7373146765
  C         8.3490643448        5.7224690963       26.2299765229
  H         9.9385244506        4.6641900938       25.5273499315
  H         9.4576393009        4.0047908315       27.0336793840
  C         7.3125351769        4.8078562508       25.5130706167
  H         7.8102041124        6.0253496633       27.0848268066
  H         8.5661083379        6.6076874046       25.5891521476
  C         6.9623009616        3.4182987374       26.1873232289
  C         7.7955085084        4.1116541801       24.3021766134
  C         5.9724567871        5.3808329251       25.1777783690
  C         7.2104128650        2.3420892002       25.3134603417
  C         6.6557242470        3.0799933345       27.4981659970
  C         7.7378815004        2.7734750511       24.1246685619
  C         8.2713194070        4.8196011721       23.2014568293
  H         5.3692782104        4.6180302954       24.7217488471
  H         6.1453583565        6.2262784341       24.6275770903
  C         5.1626206006        5.7638757378       26.4053099707
  S         6.8695508049        0.8372800361       26.1371496521
  C         6.5696010560        1.7343175961       27.6086215670
  H         6.4858227338        3.8918075451       28.1981184632
  C         8.0952202943        2.1384360613       22.9966858458
  H         8.3832988053        5.9137451128       23.2966087333
  C         8.5343410507        4.2287360494       21.9978093962
  H         5.5774736591        5.7980264383       27.4458255302
  H         4.8918129901        6.7620561639       26.2256130779
  C         3.7913462557        5.0945412110       26.3975361441
  C         6.0725035822        1.1233432754       28.8592849596
  C         8.4940068351        2.8501552097       21.8616505941
  H         8.0172505295        1.0500038665       22.9311222358
  C         8.9775963299        4.5943441155       20.7794919883
  H         3.9147443545        4.0460082096       26.5472816502
  H         3.2455373267        5.1695603450       25.4976709722
  C         2.8192289910        5.6125130846       27.4717450528
  C         6.0686070986       -0.2490962408       29.1910860586
  C         5.5617790129        1.9551124580       29.9187758406
  C         8.9457940314        2.1736452940       20.6227383285
  C         9.1780040128        3.5191213653       19.8851787325
  S         9.2298502916        6.1215005693       20.0701611967
  H         2.2635815574        6.5023121079       27.0664299650
  H         3.2808699683        6.0150350870       28.3547606909
  C         1.7844742955        4.5510972703       28.0417663859
  N         6.5475487269       -1.2409253705       28.3505327453
  C         5.6956040639       -0.7397920603       30.4212511865
  C         5.2613905775        1.4926914154       31.1857966068
  H         5.4710548054        3.0205046297       29.7436611929
  C         7.8462653032        1.4232577922       19.8945201876
  C        10.2204867233        1.4709807090       20.8487239569
  C         9.4687963911        3.9699605739       18.5551791244
  C         9.5879272514        5.3656471610       18.5346755810
  H         1.4190648829        3.9826059655       27.1997051929
  H         2.3888977891        3.7537845140       28.6375072859
  C         0.7554789230        5.1832677069       28.9190998624
  S         6.4907978311       -2.7018378727       29.0781143599
  N         5.7389342795       -2.1637846626       30.4113725031
  C         5.4540064364        0.0574137979       31.5238854374
  H         4.9862231318        2.1563599057       31.9905810650
  H         7.6090311332        0.5110428453       20.3514055377
  H         8.0341712347        1.1053724727       18.8973257534
  C         6.5223857661        2.1818416075       19.8029004961
  H        10.3262703808        0.5997672551       20.1897203860
  H        10.0855495890        1.1010279665       21.8820298186
  C        11.4406536719        2.3383163160       20.8448996507
  H         9.7062241817        3.1939949905       17.8247930982
  C        10.0725680991        6.0323825029       17.3240791537
  H         0.0253437189        4.4171061319       29.2072204755
  H         0.1772657356        5.9154505039       28.3677602765
  C         1.2912453668        5.8488954301       30.2221998086
  C         5.0738501132       -0.6406011921       32.7856342585
  H         6.6025844565        3.0833867754       19.2492092471
  H         6.0969793148        2.4019606624       20.7692151856
  C         5.4675631970        1.2682508627       19.1083273864
  H        11.3576816376        3.2593055029       21.4498588748
  H        11.7295805242        2.7539096189       19.8909595041
  C        12.6011733446        1.5511569872       21.2547513832
  C        10.0744965874        7.4241820252       17.1945660642
  C        10.4435925105        5.3043518989       16.0566511591
  H         2.1284517662        6.5710130496       29.9885176615
  H         0.5874605854        6.5423439832       30.6476290122
  C         1.9641050677        4.9004832823       31.2607172582
  H         5.1288422220       -1.7027920002       32.6854238908
  C         4.8659040062       -0.1997385932       34.0182124326
  H         5.2784613258        0.3910517351       19.6444898631
  H         5.8529092368        1.0036196030       18.2082686421
  C         4.1956672808        2.0296429518       18.9039421135
  H        12.2966688532        0.9642787116       22.1143834468
  H        12.9495141078        0.7930307484       20.5325329018
  C        13.8230169713        2.4669496040       21.5822015478
  N         9.6655032565        8.2783861947       18.1377585724
  C        10.4723059850        8.1152311196       15.9955605311
  C        10.6275154754        5.9219659062       14.8584996853
  H        10.2039332582        4.2389245877       16.0302954233
  H         2.3378646173        5.5726334226       32.0318317089
  H         1.3472519454        4.1770681147       31.6640662637
  H         2.8295224260        4.4205149241       30.8422080214
  S         4.6101195988        1.4096025300       34.4562880543
  C         4.8693177378       -1.1175763660       35.1913593205
  H         3.9060214734        2.7948367494       19.7249569054
  H         4.2525572119        2.6623555303       17.9667189119
  C         2.9974960472        1.1188728150       18.9481752890
  H        13.5242311997        3.3896897678       21.9868782906
  H        14.3215499776        2.8359038991       20.6644783943
  C        14.7902808679        1.8049239826       22.5685454613
  S         9.9587321094        9.7909384500       17.6036834682
  N        10.4305228363        9.5113927008       16.1174128856
  C        10.7083682836        7.3867670859       14.7922073892
  H        10.7377636502        5.3216411212       14.0464418281
  C         4.3427127203        0.8342762094       36.1295598065
  N         4.3856693310       -0.5376593979       36.2992462133
  O         5.1538386942       -2.2903840879       35.1151855445
  H         2.1556041866        1.7740472042       18.9430444393
  H         3.1122245744        0.5707788579       19.8517038859
  C         2.9100517208       -0.0067479774       17.9253745175
  H        14.2518919836        1.2787226053       23.4385686283
  H        15.3146179173        1.0611932443       21.9079971920
  C        15.8028075774        2.8444680609       23.1994437254
  C        11.0429393339        8.1394105181       13.6303284813
  S         3.9738356121        1.8085415112       37.4989754434
  C         4.3031977262       -1.1348675311       37.5925594528
  H         2.1097734376        0.2630714868       17.2504233089
  H         3.8740889028       -0.0293209820       17.4597699981
  C         2.8647026154       -1.3816957356       18.4483108399
  H        15.2061223340        3.4698224201       23.9271179325
  H        16.1673542239        3.5158752572       22.4382965201
  C        16.8685210332        2.0372926500       23.8651329018
  H        10.5877309702        9.1151624540       13.6088009341
  C        11.5356206119        7.8488122316       12.3675150032
  H         3.4641816865       -0.8008323897       38.1982245795
  H         4.0048085068       -2.2274994709       37.4713546837
  C         5.6487724183       -1.0498922489       38.3467271600
  H         2.1029689173       -1.6031685888       19.1900598718
  H         3.8266228452       -1.5172891899       18.9605259358
  C         2.7232775049       -2.3512986032       17.2444326834
  H        17.3087420909        2.6891526592       24.5678384693
  H        16.4659873583        1.1664784798       24.3928730150
  C        17.8800297760        1.4531196371       22.8462590877
  S        12.1853636085        6.4004052750       11.7454133833
  C        11.4597851790        8.9469396299       11.3250973905
  H         5.3772523954       -0.6751376893       39.3474802864
  H         5.9896779097       -2.1255962361       38.4251769580
  H         6.5546145594       -0.4788873005       37.9124367824
  H         1.7169190898       -2.6994683483       17.1686070676
  H         3.3861994756       -3.2611896922       17.2816850720
  H         2.8774813335       -1.9370949939       16.2287162482
  H        18.1509637405        2.1368806256       22.0532553697
  H        17.4980974459        0.4781415362       22.4195943702
  H        18.8063813035        1.2481961552       23.4526970545
  C        12.4315347313        7.1416070427       10.1977757056
  N        12.0311019105        8.4276061534       10.1427085224
  O        11.2141710940       10.1688735845       11.5327761767
  S        12.9362688214        6.3888312422        8.6492141326
  C        12.0482546941        9.2085902162        8.9186335077
  H        12.0024834596       10.2372307599        9.1762339005
  H        12.9900154132        9.1450558199        8.4461185016
  C        10.8816814677        8.8192255403        7.9660344297
  H        10.0864756807        9.5921445483        8.0251687444
  H        11.2487159741        8.9294935949        6.9971561754
  H        10.6211394284        7.8189033477        8.2407036226
  H        20.9247359467       11.3553183454        2.7830249666
  C        21.4019669636       10.3830942642        2.9885547398
  H        20.7068188771        9.5737110753        3.1518852404
  C        22.3991402119       10.4614157741        4.0686973950
  C        22.3285821263        9.9714123953        1.7981090362
  C        21.8505694881       10.6092995590        5.4497976378
  H        23.2179331094        9.7355146079        3.9235101622
  H        22.8154941380       11.4510549167        3.8163220860
  H        23.0746832841       10.7536814197        1.7644880725
  H        21.7755558231       10.1957224890        0.8220666403
  H        22.6340159957        8.9615458816        1.9673976432
  C        21.0443283134        9.3865736751        5.9175451111
  H        22.6936639057       10.4840577958        6.1023819531
  H        21.2540859043       11.5010418050        5.5935556792
  C        20.0703362332        9.5775367327        7.0791021602
  H        21.7393315559        8.5845940039        6.0863501653
  H        20.4220180109        8.8904532319        5.1413643495
  C        18.8311429006       10.1370962802        6.4791975660
  H        20.4137481965       10.2129710718        7.8682473839
  H        19.8087130088        8.6402259899        7.5356149102
  C        17.7110997703       10.0901740311        7.4696050448
  H        19.1200887913       11.1395286338        6.2782413291
  H        18.5051065367        9.6430121559        5.5149208681
  C        16.4648605282       10.9389784674        7.0245905178
  H        17.9673743544       10.6093158690        8.3077374465
  H        17.4103574283        9.1046176292        7.5333304424
  C        16.8862987520       12.2754474307        6.3556557173
  C        16.0470668267       11.6493201790        8.2001668107
  C        15.4741869761       10.2724860401        6.0447234154
  C        16.5942603992       13.3717155468        7.1462667239
  C        17.3466814766       12.5999169529        5.0470656274
  C        16.1259644486       13.0044210345        8.3380501607
  C        15.5260210791       10.9749738608        9.2998816137
  H        16.0608071663        9.9509776669        5.1716127783
  H        14.8768774605        9.4531738994        6.4785293191
  C        14.3928688696       11.2374056750        5.6511700970
  S        16.9960574054       14.8572854934        6.2752554952
  C        17.4988163316       13.9519241159        4.8717786185
  H        17.6046549379       11.7693438107        4.3652906796
  C        15.7093051734       13.6190661311        9.4594497457
  H        15.5270707732        9.9437131452        9.3301570039
  C        15.1815742471       11.5989406791       10.4409246269
  H        14.7478625590       12.0472382046        4.9969748674
  H        13.8984868375       11.7909528392        6.4203485034
  C        13.3249697690       10.6157684394        4.7782992367
  C        18.1038949509       14.5651499090        3.6443288539
  C        15.2392844288       12.9594020334       10.6356096508
  H        15.6633099480       14.7181201706        9.4643236020
  C        14.8645671699       11.2986449998       11.6784565337
  H        12.3631950403       11.1542139124        4.9886674059
  H        13.1793900771        9.5807063117        5.0724921502
  C        13.5981003417       10.7925448893        3.3038317896
  C        18.0263963714       15.9689457177        3.3019469216
  C        18.7833570831       13.7156533730        2.5652970569
  C        14.9411380698       13.6598748172       11.9104264830
  C        14.7240028454       12.3557447986       12.5820623583
  S        14.6716177017        9.8160831945       12.4468347494
  H        14.6758233380       10.8016153330        3.1005431897
  H        13.1754706854       11.6094287735        2.8732111642
  C        13.1313437473        9.5561245906        2.4309664192
  N        17.5539543129       16.9563421463        4.1583184996
  C        18.2821270958       16.3495231736        2.0280654001
  C        19.0376794508       14.1207869555        1.2571132818
  H        18.9118435892       12.6914084298        2.6679729629
  C        13.6582808685       14.4845274118       11.7002499018
  C        16.1284597389       14.5412443981       12.4302988609
  C        14.4114224600       11.9975169172       13.9007768943
  C        14.3071444552       10.6201539436       13.9594733273
  H        13.7579251562        8.7326970387        2.7463099716
  H        12.0767933663        9.3807907889        2.6882191008
  C        13.2211657227        9.6830103902        1.0122320345
  S        17.7224967156       18.4188469365        3.2874482399
  N        17.9400848468       17.7294178052        1.8724552239
  C        18.6990930641       15.5040633452        0.9182223891
  H        19.4768070167       13.4223112003        0.5449012194
  H        13.8461467540       15.3040374966       11.0085914218
  H        13.4105018306       14.9371462716       12.6468450884
  C        12.4989999118       13.5330665606       11.1510706213
  H        16.2097430160       15.4085583805       11.7174025098
  H        15.9106004246       15.0352836790       13.3528374015
  C        17.4379101971       13.8147973666       12.5621517469
  H        14.2830107684       12.7662449323       14.6286854296
  C        14.1036479482        9.7768001830       15.1788829233
  H        13.5358579055        8.8118304863        0.4905749637
  H        14.0095578649       10.3732340211        0.8256910200
  C        11.9076888740       10.0374485885        0.2615550140
  C        18.9441299297       16.0846970976       -0.3649014600
  H        12.5744722246       13.1922356398       10.1250806590
  H        12.4351373883       12.5649721212       11.6768875932
  C        11.1646073340       14.2052688349       11.4399864235
  H        17.7212034941       13.6495778749       11.5464195486
  H        17.1887504162       12.8029847736       13.0661788835
  C        18.5582351419       14.4905068706       13.1985089920
  C        13.9967384778        8.3672175054       15.2730109096
  C        13.8651218542       10.4986533313       16.4816922399
  H        11.3072579346        9.1420572810        0.1912220181
  H        11.1884519820       10.6207491649        0.8912504318
  C        12.1839852956       10.7455108272       -1.0302471693
  H        18.4803483973       17.0446731393       -0.3968886492
  C        19.2224292135       15.5946503988       -1.5965731421
  H        11.2809109202       15.3156064003       11.4166742880
  H        10.8108964973       14.0216067564       12.4201799999
  C        10.2027513050       13.7650877045       10.4197975518
  H        18.9148210307       15.2342687020       12.5353908974
  H        18.2786107157       15.0527129501       14.1044257861
  C        19.7446326255       13.5634869913       13.5305050174
  N        14.2371430073        7.4545620850       14.1567472778
  C        13.6334785642        7.6529628143       16.4263504774
  C        13.5616480198        9.7982903738       17.6923544696
  H        13.9164574251       11.5696777833       16.5718814045
  H        12.2523622423        9.9071359495       -1.7246439395
  H        13.1030184703       11.3897268941       -1.0275400495
  H        11.3804683610       11.4275154027       -1.3760186144
  S        19.7025666734       13.9994995572       -1.9971767786
  C        19.2403248842       16.5474631462       -2.7489997022
  H         9.9801513630       14.5470101918        9.7164937520
  H        10.6332566301       13.0335636055        9.7930299342
  C         8.9403450036       13.2644706567       11.0547326644
  H        20.4661398285       13.5721278392       12.7387356031
  H        19.4367520073       12.5367415100       13.7424275573
  C        20.3924091045       13.9817647469       14.8902379518
  S        13.9001685761        5.9269798616       14.6898825969
  N        13.6543358313        6.2714859350       16.2528076279
  C        13.4047495212        8.2992988562       17.6991965721
  H        13.5237693192       10.3664103101       18.6191931288
  C        19.8007539593       14.6415847993       -3.6523411436
  N        19.6749895709       15.9508337915       -3.8452933258
  O        19.0370797419       17.7761032649       -2.6418325911
  H         9.2517220279       12.3529240967       11.6779178659
  H         8.6301125796       14.1118787727       11.6193368783
  C         7.6610028596       12.9518217865       10.2499525928
  H        19.6581899215       13.9055312029       15.7424619641
  H        21.0391106554       13.1845206864       15.2124649573
  C        20.9575307060       15.4569718598       14.8103183240
  C        13.1010472286        7.4502296805       18.9166909279
  S        20.1238912958       13.6453918523       -5.0726847171
  C        19.6441351289       16.6751498532       -5.1670856708
  H         7.8473057982       12.2672133730        9.3282955143
  H         7.1000618558       12.3220917307       10.9123139583
  C         6.7817837087       14.1563786114        9.7670463700
  H        20.2541799686       16.2451094866       14.4074780382
  H        21.7435325412       15.3905278193       13.9910720221
  C        21.6037877914       15.9631353872       16.0679424535
  H        12.9393546961        6.4174730821       18.7068780578
  C        12.6136635302        7.7840882735       20.1750015724
  H        20.3148662345       16.1090272775       -5.8197368118
  H        20.1337431126       17.6078468587       -5.1241465082
  C        18.1579324298       16.6577830370       -5.6568274908
  H         7.2802183247       14.5831848482        8.9466447491
  H         6.7739527663       14.9035498039       10.5332614701
  C         5.3832107062       13.8184043174        9.3506779836
  H        20.8809577645       16.2422419477       16.8033490576
  H        22.2371127056       15.2500302528       16.6585297083
  C        22.4282092684       17.2845477790       15.7824494455
  S        12.1601351802        9.3638540596       20.8094133589
  C        12.3649892339        6.6281111683       21.1005204026
  H        17.4252947112       17.0491288709       -4.9284272286
  H        17.8677574626       15.7458322816       -6.1436136914
  H        18.1043183749       17.3998727634       -6.4689412649
  H         5.3781754514       12.8411223242        8.7940336023
  H         4.7424607695       13.7187363338       10.1470725608
  H         4.8911300233       14.6014608906        8.8325698682
  H        22.6484589898       17.3494046508       14.7577632059
  H        21.7907560818       18.0954531056       16.0929074794
  H        23.4209230587       17.2990246020       16.3231595413
  C        11.6618927661        8.4736732496       22.2145906868
  N        11.7515226521        7.1145099046       22.1985756613
  O        12.7795404672        5.5163407270       20.8691882954
  S        10.6008765479        9.1977123674       23.5002846053
  C        11.5345036650        6.2083889815       23.2901557940
  H        10.9855926258        5.3696201515       22.8092161490
  H        10.6820226703        6.5298043467       23.9316455567
  C        12.7721734624        5.8566906948       24.1424736055
  H        12.6009548123        4.9877649402       24.8172897299
  H        12.9752969758        6.7788832036       24.6866778864
  H        13.6377296501        5.4786333671       23.5656383831
