352
 i =    96600, time =    96600.000, E =        25.0829113847
  H         9.9817728644        5.3500404151       32.3027808031
  C        10.3660621526        6.3630598335       32.3487605460
  H         9.6465079257        7.1016216166       32.7951879736
  C        10.5637677920        6.8361974108       30.8736939743
  C        11.6578763724        6.3416392459       33.1851334391
  C        11.4465909527        5.9952323449       29.9578464342
  H         9.5809985682        6.8909336193       30.3487392641
  H        10.9873934273        7.9362305269       30.9215374616
  H        12.0095787594        7.2822421552       33.7166837360
  H        11.4375256703        5.6360481650       33.9872730961
  H        12.4602909082        6.0363091804       32.5368885290
  C        10.7379457268        5.0480074940       28.9582683451
  H        12.1662964166        5.4290224509       30.6236788572
  H        12.1517798769        6.6610300545       29.4431088644
  C        10.7844335385        5.6859417642       27.5473806953
  H        11.1910021150        4.1417879315       28.9080163413
  H         9.6820569765        4.8563410796       29.1893787340
  C         9.8594444218        4.9682393466       26.4772803437
  H        11.8662695852        5.8637257109       27.3073007797
  H        10.4176239162        6.7160240584       27.4850681307
  C         8.5803365720        5.7967263449       26.1756854253
  H        10.4732945274        4.5563259863       25.6500621670
  H         9.5045379135        4.1120920647       27.0513651081
  C         7.4292301367        5.0312797259       25.4840954971
  H         8.1538776315        6.2770354687       27.0964872842
  H         8.8461677382        6.5805155724       25.4711382050
  C         7.0077801493        3.7039197045       26.1672500252
  C         8.0091458600        4.1161033588       24.2894275085
  C         6.2978039089        5.8899405421       24.9572293157
  C         7.2508644773        2.5371199981       25.4445679818
  C         6.3845653022        3.3729294041       27.3878335474
  C         7.8452936041        2.7903095993       24.1915169897
  C         8.4824437143        4.7323635427       23.1165158480
  H         5.7696004843        5.3760802592       24.1839235359
  H         6.7562437610        6.8106252288       24.4404938129
  C         5.4245474573        6.5118029534       26.0353421570
  S         6.7778420735        1.0989405514       26.1890264613
  C         6.2065696753        2.0402849619       27.5787093578
  H         6.0848841134        4.1313847623       28.1561750059
  C         8.2717080008        2.1826075835       23.0388218794
  H         8.5381868802        5.8401062205       23.1129284635
  C         8.8813296523        4.1167903190       22.0189968451
  H         5.9866087109        6.5282409790       27.0062442199
  H         5.3222879509        7.5083096177       25.7546404536
  C         4.0790692739        5.7730982566       26.1293496177
  C         5.7382319671        1.3806014465       28.8868203882
  C         8.7553136193        2.7801544638       21.8952684534
  H         8.1727184877        1.0832669874       22.9392817173
  C         9.2895546926        4.4750359304       20.7716061768
  H         4.2612451151        4.7135655257       26.2638678641
  H         3.5959894296        5.9205082815       25.1532545492
  C         3.3102763300        6.2599337128       27.3350364406
  C         5.7812886185       -0.0014726250       29.2388797470
  C         5.2810911740        2.1879786210       29.9707984401
  C         9.1032707947        2.0605790662       20.6220392648
  C         9.4046909182        3.3954332253       19.9185649531
  S         9.5513510377        6.0324050188       19.9313110051
  H         2.8674885379        7.2380236631       27.1798937909
  H         4.0077660759        6.3937946609       28.2009793253
  C         2.2800040833        5.3014146104       27.8719356984
  N         6.0882671569       -1.0818074512       28.3446804179
  C         5.6702876241       -0.5336046978       30.5232922473
  C         4.9986093475        1.6688243867       31.2383037188
  H         5.1235493850        3.2239179054       29.7594461197
  C         8.0211853715        1.2509304491       19.9528481273
  C        10.4835221037        1.2875331593       20.7079722869
  C         9.6654120485        3.8230483448       18.6349493347
  C         9.8928585833        5.1910865547       18.4845125287
  H         1.7822616937        4.8213651338       26.9816595872
  H         2.7890868904        4.5125964492       28.3599463963
  C         1.2500493795        5.9649319757       28.7896179136
  S         6.1612031156       -2.4863989972       29.2021393149
  N         5.9471337768       -1.9166491284       30.6514721675
  C         5.2650918282        0.2941855795       31.5900721809
  H         4.4904313019        2.2196689498       32.0016654199
  H         7.8405362796        0.4275079039       20.6088659436
  H         8.4813734748        0.9066844543       19.0477684939
  C         6.7194409805        2.0499156553       19.6259643152
  H        10.8378977707        0.7840258978       19.7790948259
  H        10.3532059886        0.4155124467       21.2581548318
  C        11.6709458260        2.1358084661       21.2897841850
  H         9.6484283792        3.0056535795       17.8881786558
  C        10.3115850026        5.9748664990       17.2635954827
  H         0.3927723942        5.2641976821       28.6574803556
  H         0.8207604700        6.8009551113       28.3239336281
  C         1.6967575306        5.9970985408       30.2711223728
  C         5.0919887956       -0.2673144662       32.8877865319
  H         6.8342203247        3.0554901884       19.1708529233
  H         6.2996020928        2.1851881621       20.5928839174
  C         5.6009770978        1.2601148015       19.0140938672
  H        11.3546098216        2.6275337877       22.2121080484
  H        12.0215357041        2.9911205740       20.6679289623
  C        12.8229433341        1.2954314111       21.8607376937
  C        10.3904546183        7.4302085012       17.1785874125
  C        10.8307566627        5.2576666453       16.0367479421
  H         2.6936011015        5.6895184744       30.2530268478
  H         1.7684578641        6.9795340166       30.7341521717
  C         1.1090392696        5.0075953120       31.1793151744
  H         5.5716416206       -1.2078842667       33.0208694979
  C         4.7448140022        0.1965379805       34.1359509251
  H         5.4041399964        0.5011210669       19.7689976975
  H         6.0064909830        0.7392939501       18.1664203518
  C         4.3336032873        1.9808004184       18.5713094170
  H        13.0046508636        1.6983393304       22.8671732114
  H        12.4775715612        0.2811210537       22.0458546485
  C        14.1721206669        1.3788845919       21.1222439967
  N        10.0481535788        8.3566077892       18.1537419451
  C        10.8074737459        8.0994059718       16.0386609984
  C        11.0893989621        5.9510530448       14.8891236177
  H        10.8609134566        4.1455972204       15.9352974306
  H         0.5296170543        4.4139894366       30.5857388455
  H         1.9196622227        4.4947841385       31.6619234120
  H         0.5256029005        5.5713539965       31.9342044775
  S         4.2921360134        1.7389914678       34.5733859353
  C         5.0155712348       -0.8104680450       35.2672730393
  H         4.1695042948        2.8380578907       19.2283556920
  H         4.6120976733        2.4724236222       17.6892459540
  C         3.1287205318        1.1394400866       18.4850445158
  H        14.2870224065        2.4200937138       20.8711365893
  H        14.1734650174        0.7894704147       20.2199682294
  C        15.2645814352        0.9927087797       22.1188688546
  S        10.0561985768        9.8963926018       17.5578675110
  N        10.6475824438        9.5044419680       16.0789894822
  C        11.2191463693        7.4786711140       14.9086762036
  H        11.2199948785        5.4303174922       13.9587225078
  C         4.3560657142        1.1306683626       36.2762108153
  N         4.5722460433       -0.2154959565       36.4150034874
  O         5.2363586496       -2.0214319830       35.1182691688
  H         2.2274696958        1.6555944748       18.2571836099
  H         2.9480314631        0.6176847905       19.4792002300
  C         3.2094275739       -0.0190454259       17.3826339397
  H        14.7513117991        0.6209399415       22.9743850261
  H        15.8384567281        0.1815044800       21.6499302669
  C        15.9578381896        2.2418322942       22.6578365444
  C        11.3911157547        8.2295222200       13.6900378590
  S         3.8209585943        2.0294586899       37.6711342757
  C         4.6249658378       -0.9279390121       37.7784278979
  H         3.1376590321        0.4923329189       16.4146097594
  H         4.0780040710       -0.6211910649       17.5642148210
  C         2.0938109845       -0.9977659915       17.4718707150
  H        15.2788832251        2.7419917817       23.3265844744
  H        16.2698910146        2.9055077551       21.7767588591
  C        17.2429902089        2.0865329645       23.5212580981
  H        10.9637377170        9.2427140961       13.8042321810
  C        11.8987664701        7.9192362020       12.4040993158
  H         3.9600140652       -0.4943475890       38.5388775614
  H         4.3374219877       -1.9228768390       37.6568723222
  C         5.9851906816       -0.9435271166       38.3827523850
  H         2.1536603646       -1.5322405818       16.5442039726
  H         1.0438461706       -0.5186066112       17.2943651645
  C         2.2152125589       -1.9852159218       18.6877678047
  H        17.1690122146        3.0469489141       24.0006017077
  H        17.0319741724        1.3549821258       24.3217074400
  C        18.5347913363        1.8083770562       22.7576180350
  S        12.5429468606        6.3490716981       11.9383552630
  C        11.8681801043        8.9529274149       11.3523119137
  H         6.0358218392       -1.5525073252       39.2447818893
  H         6.7465062605       -1.2292106074       37.6555395762
  H         6.2362507733        0.1033602961       38.6371648862
  H         2.1773632816       -3.0047988530       18.2810813479
  H         1.3949688173       -1.8956983952       19.4322079456
  H         3.1863597339       -1.8368200619       19.2314318350
  H        19.2256086421        1.2369333283       23.4042537371
  H        18.9587763620        2.7416764337       22.4438651771
  H        18.4163964801        1.2673559569       21.8247794979
  C        12.8277889170        7.1127195975       10.3096003883
  N        12.4799852856        8.4230505485       10.2502534202
  O        11.3167403134       10.0329666295       11.4568759827
  S        13.3692398522        6.2659383270        8.7621737644
  C        12.7093732455        9.2352751325        9.1179555140
  H        12.9196528783       10.2900728446        9.4535993060
  H        13.5752791736        9.2141467409        8.4578665150
  C        11.5079099690        9.1137982915        8.2378327160
  H        11.4768359622        8.0504676808        7.9023520931
  H        10.5910227771        9.3445694251        8.7997585261
  H        11.5542471096        9.6909658517        7.3261815807
  H        21.3328371666       11.2470250731        2.9826420888
  C        22.1222883147       10.4363592614        3.0052136052
  H        21.6248000918        9.5717575527        2.8193655672
  C        22.8487491338       10.3162368789        4.3352698549
  C        23.1896166825       10.7122228047        1.9543019709
  C        22.0184908843       10.2583931900        5.6335262522
  H        23.3474289194        9.3527608519        4.3159831838
  H        23.5329247233       11.1813991070        4.4670114883
  H        23.7746039039        9.8462218093        1.9579910974
  H        23.7967842176       11.5320975489        2.2515330523
  H        22.7425862749       10.8047873699        0.9999207391
  C        20.9333236904        9.1805888806        5.5294485925
  H        22.6752953277       10.0111143676        6.4855832324
  H        21.7070939419       11.3071878095        5.9116414094
  C        20.2504972860        8.9831571886        6.9077301510
  H        21.2422257097        8.2368737164        5.0785238532
  H        20.1759847331        9.6028138870        4.8971002965
  C        19.0073504942        9.9092066514        7.0905220435
  H        21.0713711206        9.0522357321        7.5915954351
  H        19.8985738511        7.9110888009        7.0669501514
  C        17.6219084475        9.4242220757        6.6272480518
  H        18.9561811599       10.2565376921        8.0996846219
  H        19.2388958089       10.9042582977        6.7233651593
  C        16.5650153561       10.5685114274        6.7176914628
  H        17.3291412881        8.6600436162        7.2487081691
  H        17.7366161052        8.8605079558        5.6663268057
  C        17.0768747047       11.8646286210        6.0459235939
  C        16.3665333709       11.3465536396        7.9555438474
  C        15.2368099549       10.0523926703        6.0819839539
  C        17.0735647375       13.0413044593        6.8421978620
  C        17.6116302632       12.2010026168        4.7698142766
  C        16.6428659892       12.6570604979        8.1168445407
  C        15.9288355426       10.7056065862        9.1191088092
  H        15.4701375186        9.7444928587        5.0885004724
  H        14.8841968012        9.2378721605        6.7013877456
  C        14.2067589980       11.1118717956        5.8241395327
  S        17.5610519317       14.4946733476        6.0734579464
  C        17.8805957215       13.5305331306        4.6533687508
  H        17.8468580920       11.4616533532        4.0995420126
  C        16.5050534433       13.2944562349        9.2604107911
  H        15.7112287441        9.6434674937        8.9826580128
  C        15.7896834822       11.3174855086       10.3368735393
  H        14.6201475677       11.9417869792        5.3868690209
  H        13.8707324010       11.4571883075        6.8708381964
  C        13.1452345391       10.6765069668        4.8110211199
  C        18.5206716038       14.2060582763        3.4956661679
  C        16.0542362410       12.6138708326       10.4622509145
  H        16.7508738155       14.2963917454        9.2372993419
  C        15.3342047777       10.9141784776       11.5834623516
  H        12.2869085416       11.3207025424        5.0605156179
  H        12.8388825669        9.6765687402        5.0984557246
  C        13.4120197709       10.9720158784        3.3486822111
  C        18.5562402939       15.6016997023        3.2555683113
  C        18.7707162332       13.3140722488        2.3323557678
  C        15.8241232012       13.2942010034       11.7825644117
  C        15.4739152942       11.9743755682       12.4756049081
  S        14.8926813603        9.4228805251       12.3469959569
  H        14.1784704399       11.7537759516        3.4142405649
  H        12.4611725812       11.3221883376        2.8955156887
  C        13.9339286647        9.7293276339        2.5984483293
  N        18.2885868321       16.6397265940        4.1552314102
  C        18.9822951615       16.1652969589        2.0450099534
  C        19.1417993649       13.8604564571        1.1046685268
  H        18.6974163891       12.2503833085        2.5083043820
  C        14.5969639623       14.1576428641       11.6124664988
  C        16.9603195480       14.1596600242       12.3964586438
  C        15.2337213675       11.5479096843       13.7826525948
  C        14.9102416799       10.2221706160       13.8969955081
  H        14.9140386794        9.3049035418        2.8996883906
  H        13.3015468056        8.8857432218        2.6197213758
  C        14.1065980906       10.0725772447        1.0645908028
  S        18.4126779281       18.0964415946        3.4316590881
  N        18.9736259259       17.5982828934        2.0345443154
  C        19.1495711943       15.3615727066        0.9108042900
  H        19.3140561744       13.1245612619        0.3268802536
  H        14.6449575040       14.8322983673       10.7184128737
  H        14.4428950753       14.8994734750       12.4629750790
  C        13.3069944819       13.4994021060       11.2813506084
  H        17.3735996535       14.8021590968       11.6350256435
  H        16.6519982828       14.8302809007       13.2111878045
  C        18.0609464243       13.2889101045       13.0069984204
  H        15.2180645709       12.3276710411       14.5216446834
  C        14.5531442253        9.5133645500       15.1968219027
  H        14.9265517041        9.5091361780        0.6761593237
  H        14.3495163285       11.1059367136        1.0191962891
  C        12.7471176495        9.8097636987        0.4247934345
  C        19.3170628385       16.0445820317       -0.3723836481
  H        13.4020748726       12.8869280216       10.4301059636
  H        13.0285805701       12.6925110702       12.0445518322
  C        12.0502266434       14.3618192402       11.1529449175
  H        18.4645935313       12.7373969577       12.1582122890
  H        17.6310693500       12.5301931294       13.6657458747
  C        19.0868450946       14.0425027890       13.8274574605
  C        14.4257831057        8.1040908271       15.3376382943
  C        14.2130552897       10.3484101830       16.3657783676
  H        12.6048930280        8.7383005128        0.4620193636
  H        11.9715350590       10.1960821995        1.0464273746
  C        12.5813813278       10.2250953082       -1.0022705524
  H        19.1929351017       17.1057065296       -0.3468165244
  C        19.3803703517       15.6353021694       -1.6686054463
  H        12.4758238162       15.2161806241       10.6900728982
  H        11.6000266738       14.6002847674       12.0490654016
  C        11.0210039218       13.7688993491       10.1701804055
  H        18.8830950054       15.1243388726       13.7124688917
  H        18.8678824984       13.6912919736       14.8632051954
  C        20.5433248267       13.6852934479       13.4074272902
  N        14.7066862830        7.1125640415       14.3499462942
  C        13.9686360225        7.5079326677       16.5026154819
  C        13.8073711488        9.6534121282       17.5095421127
  H        14.3561102373       11.3704132020       16.4294588753
  H        12.9679216721       11.2197062503       -1.0856344914
  H        11.5212697929       10.2752297127       -1.1083315693
  H        13.0910477571        9.5120662163       -1.7178916761
  S        19.6716112336       14.0317682737       -2.1399397023
  C        19.3633554800       16.7046720006       -2.7428814004
  H        10.6643062994       14.5517384124        9.5338452855
  H        11.4066199105       12.9828689954        9.6434602789
  C         9.8516179022       13.1209471438       10.9292105086
  H        20.6065904355       13.5873674700       12.3347329864
  H        20.8575630066       12.7537707245       13.8237161640
  C        21.5232619768       14.7868884901       13.7702088616
  S        14.3497195086        5.6689926382       14.9108446014
  N        14.0132450371        6.0807551753       16.4203696841
  C        13.6909362270        8.1814473658       17.6711846855
  H        13.5144998029       10.3228310183       18.3468793578
  C        19.9072433614       14.6819878729       -3.7625607586
  N        19.6611885630       16.0709559121       -3.8988162707
  O        19.4442879939       17.9042334788       -2.5136501121
  H         9.4853919651       12.2419662318       10.3724428851
  H        10.3533474477       12.7053557794       11.7988317438
  C         8.7300683183       14.0288656246       11.2970519638
  H        21.6212596022       14.7794023361       14.8715674592
  H        22.5336460329       14.4894296165       13.3781515897
  C        21.1576858808       16.1697285786       13.2523872334
  C        13.4296197365        7.4042782568       18.8439586014
  S        20.3613862596       13.7202850019       -5.1565617419
  C        19.8096074942       16.7606007408       -5.1592872207
  H         8.1247670725       13.4808997284       12.0304845147
  H         9.1036299489       14.8455148880       11.8923158352
  C         7.8945027000       14.3057000759       10.0658047136
  H        20.3864696144       16.0125862367       12.5373526276
  H        22.0949849645       16.6004962096       12.9106844035
  C        20.6367417223       17.0474370460       14.3850039798
  H        13.6532919575        6.3550020684       18.6320426732
  C        12.7475268421        7.5627882364       20.0508607281
  H        20.4380178704       16.2858360273       -5.9211631351
  H        20.3128432422       17.7302509756       -5.0412650817
  C        18.4740403839       17.1243224773       -5.7641553964
  H         8.5899427582       14.4617259567        9.2033125347
  H         7.3594900159       15.1493863097       10.2974436579
  C         6.8944544931       13.2982865389        9.7528275894
  H        19.9559343684       17.7870500916       13.9888576478
  H        20.0290340068       16.5293476278       15.1054426287
  C        21.7035093682       17.7894879978       15.1223814757
  S        12.0945843803        9.0716613479       20.6195487138
  C        12.7615212050        6.4906442653       21.0222338505
  H        18.3625497175       18.0717478851       -6.2845704735
  H        17.6144774121       16.9415955734       -5.1177308801
  H        18.3355615853       16.4406444403       -6.5827188325
  H         6.2327763454       13.7362815633        9.0269720682
  H         7.3211232346       12.4224746368        9.2761924064
  H         6.2671616547       12.8226049062       10.5174707909
  H        22.4642333429       17.1243831070       15.5846601132
  H        22.2012609863       18.4353611915       14.4037473593
  H        21.2071497712       18.4040421872       15.9247499054
  C        11.7361594026        8.1568160243       22.1311744018
  N        12.1061223188        6.8763790528       22.1067867851
  O        13.2424700168        5.4123847846       20.7648673568
  S        10.8901659579        8.8327384226       23.5555720533
  C        11.9372494029        5.9277084546       23.1848634101
  H        11.8175903170        4.9408882711       22.8025702184
  H        11.0498897959        6.1644491181       23.7334343669
  C        13.1482268384        5.9374415819       24.1620609723
  H        14.0943616021        5.7778723266       23.6654046905
  H        12.9633658814        5.2563288262       24.9671638311
  H        13.2263749563        6.8411802287       24.7249870524
