352
 i =    63300, time =    63300.000, E =        25.3896075855
  H         9.9683314772        4.4588237168       32.0444474755
  C        10.2695046173        5.3781828198       32.5093543789
  H         9.5443071314        5.6530842109       33.3390908020
  C        10.3619274285        6.4950663083       31.4469105543
  C        11.6252441939        5.1317199519       33.2238693607
  C        10.9604267238        6.1260038895       30.0453150443
  H         9.3553313918        6.9291126954       31.2528099628
  H        11.0206526062        7.2628658915       31.9005764286
  H        11.5904436008        4.3763371807       34.0163965937
  H        12.4399567140        4.9851839903       32.5331166134
  H        11.8114819821        6.0617995650       33.7216301226
  C         9.8775345813        5.9938783096       28.9486395453
  H        11.4819784123        5.1789668567       30.1199929586
  H        11.6744529398        6.8724767293       29.6256391925
  C        10.3768241443        5.7035312044       27.5932522154
  H         9.1117935599        5.3761908696       29.1665769451
  H         9.3849032418        6.9419922686       28.9643940226
  C         9.5022571479        4.7662857028       26.6907719982
  H        11.3655484827        5.2635447752       27.8120128745
  H        10.5537144032        6.5021088588       26.8764609047
  C         8.2288854514        5.6529810560       26.3550190913
  H        10.0041115071        4.4116376704       25.7761388379
  H         9.2359926069        3.8132346482       27.2527573274
  C         7.1737682182        4.8524189009       25.5353425261
  H         7.7953285092        6.0057447965       27.2962289584
  H         8.4612340200        6.6202940994       25.8928729759
  C         6.8289261194        3.4515612523       26.1114086439
  C         7.8170658877        4.1226293325       24.3636281195
  C         6.0250317605        5.6295286685       24.9731865388
  C         7.1522149158        2.3504579121       25.3856754250
  C         6.3717858156        3.0678121068       27.3960083943
  C         7.6646655894        2.7780097788       24.1613911673
  C         8.3011155613        4.8308286721       23.2739287351
  H         5.6102798536        5.1653801013       24.0492279635
  H         6.3671741911        6.5972825022       24.5476027595
  C         4.7844065826        5.9743353007       25.8581279611
  S         6.9173094580        0.8294401471       26.2272350265
  C         6.3391715825        1.6974553296       27.5704972923
  H         6.2012836291        3.7534531004       28.1756911696
  C         8.1078920451        2.2245665533       22.9351626536
  H         8.3129994220        5.8841291096       23.4409952564
  C         8.6170852466        4.3246094282       22.0506423662
  H         4.5890772287        5.1728959716       26.4893931488
  H         4.9911444548        6.7500154113       26.5157793843
  C         3.6491367382        6.5367406679       25.0087151864
  C         5.7952960492        0.9997971957       28.7956043435
  C         8.5747611907        2.9863892758       21.9062865404
  H         7.9688208606        1.1247539158       22.7404361111
  C         9.1078500715        4.6864917003       20.8452262813
  H         3.4559232927        5.8602558385       24.1389305658
  H         3.7553200726        7.5461989490       24.7815107178
  C         2.4484538618        6.5008571710       25.9375007305
  C         5.7895104884       -0.3795181338       29.0450905391
  C         5.0312797422        1.8747883536       29.8374733862
  C         8.9809858701        2.3078974868       20.6803224005
  C         9.1867448217        3.6336880643       19.9624697420
  S         9.4259543546        6.2072241221       20.0421990600
  H         1.7074882714        6.9806187099       25.3793553245
  H         2.5791059720        6.9855893434       26.8564568616
  C         1.8980666621        5.1118304597       26.2675843327
  N         6.2759755505       -1.4141257264       28.2810121775
  C         5.5147183761       -0.8688197295       30.3358186358
  C         4.7665076222        1.3682168480       31.0884164442
  H         4.9244668748        2.9005670390       29.6615040545
  C         7.8185157857        1.6131043604       20.0182631643
  C        10.2704513688        1.4330788879       20.7751667247
  C         9.4902221812        3.9852182530       18.6404493013
  C         9.4997255804        5.3967928577       18.4994866227
  H         1.2152556657        4.8545871260       25.4943871660
  H         2.7056595600        4.4279863848       26.3100177468
  C         1.1390028213        5.0560115951       27.6464970819
  S         6.3332248183       -2.7772093936       29.0645801541
  N         5.8269356709       -2.2338626020       30.4928983854
  C         5.0289281129       -0.0710599853       31.3720534408
  H         4.2926891540        1.9989929899       31.8516874719
  H         7.5162311768        0.7166705926       20.5792451519
  H         8.2159131795        1.3058877653       19.0458767971
  C         6.5612002093        2.4894453454       19.7869063162
  H        10.2279585211        0.8292658251       19.8578542442
  H        10.1751935373        0.7462365768       21.5960822226
  C        11.5233646932        2.2331026284       20.5255951234
  H         9.5634934259        3.2179918733       17.9023308042
  C         9.7541709205        6.1535115682       17.2420691173
  H         0.6494209136        4.0734839945       27.7157738140
  H         0.2833155398        5.8243714293       27.6679936873
  C         2.0718122411        5.2364519803       28.8541981478
  C         4.7008404358       -0.7379202394       32.6561892245
  H         6.7566256965        3.0967939410       18.9409791347
  H         6.2086651365        2.9980349126       20.6867446883
  C         5.3452026010        1.6466734016       19.3569057661
  H        11.7170859457        2.8966223938       21.3317494729
  H        11.6946161509        2.7284645245       19.5732962802
  C        12.7529335390        1.3076418097       20.4383499432
  C         9.7662063320        7.5729219606       17.0957925311
  C        10.1365949687        5.4421271686       15.9887423983
  H         2.7997832801        4.4904522715       28.9094324065
  H         2.6648993970        6.1350334192       28.7375009559
  C         1.1415567587        5.3487161403       30.0798146898
  H         4.6421011533       -1.8459813749       32.5813859395
  C         4.2604116478       -0.2601937192       33.8837672246
  H         4.6334665653        1.6238921185       20.1229171227
  H         5.4994224200        0.5304688599       19.3978954814
  C         4.7633432417        2.0594796859       18.0492230619
  H        12.6697089506        0.4449051287       21.1031400764
  H        12.7798403564        0.8557302550       19.4390338305
  C        14.1476244134        1.9010623374       20.6288185672
  N         9.4433256138        8.4314005180       18.1964849037
  C        10.1953496279        8.2950615334       15.9902683192
  C        10.3352639923        6.1352775857       14.8005655676
  H        10.1848609270        4.3347346684       16.0971148984
  H         0.6531563169        6.3501384385       30.1120544739
  H         0.3854894681        4.4650880423       30.0131584909
  H         1.8055812988        5.1475895606       30.9287598725
  S         3.9898832168        1.3055459847       34.3186703097
  C         4.2852940557       -1.1993213764       35.0452186749
  H         4.4342275193        3.1327381365       17.9570633170
  H         5.5770834021        1.9023974102       17.3650156233
  C         3.5015906559        1.2888198650       17.5714859373
  H        14.1176299094        2.9806693340       20.3496193664
  H        14.8714856207        1.4130991804       19.9745195010
  C        14.5909354987        1.6596448880       22.1070510190
  S         9.7364489932        9.9543962042       17.7285361532
  N        10.1761044696        9.6747099693       16.1997071661
  C        10.4599978744        7.6264223787       14.7393240715
  H        10.4426319275        5.5755423081       13.8606647625
  C         4.0006521080        0.7503936840       35.9494955577
  N         3.9612731034       -0.5930503759       36.1721183025
  O         4.4548892026       -2.4035927332       34.8752671995
  H         3.0101985614        1.9045200166       16.7943560967
  H         2.7944991508        1.1484021535       18.4323560344
  C         3.8660104890       -0.1093393450       17.0660836544
  H        13.8109411561        1.3347476399       22.8104932156
  H        15.2287878050        0.7526767465       22.1143417738
  C        15.3848437176        2.7560387747       22.7391523834
  C        10.8690230924        8.3635919909       13.6110521976
  S         3.6360107946        1.8349382924       37.2556349723
  C         4.1092005202       -1.2803250413       37.3892829280
  H         4.6306628548       -0.0885964657       16.2989306999
  H         4.2390107692       -0.6988927836       17.9168961409
  C         2.5657194627       -0.7175364049       16.5267094302
  H        14.8643971817        3.1296535678       23.5984770900
  H        15.2741480500        3.5609393425       21.9909997950
  C        16.8539128984        2.4976210930       23.1103935105
  H        10.6111595467        9.3946577354       13.7322492443
  C        11.4484873197        7.9844816856       12.3894230229
  H         3.3997743783       -0.9065339693       38.1495022180
  H         3.8757984867       -2.3326591579       37.1154593946
  C         5.6016230741       -1.4137336930       37.8185090967
  H         2.2888491387       -0.2863367956       15.5320560576
  H         1.8528990000       -0.5157917308       17.3445047414
  C         2.7847688503       -2.2075469323       16.2682394952
  H        17.2894396536        3.3650401239       23.5897206972
  H        16.8183192646        1.6817166421       23.8427668179
  C        17.6595759269        2.1843129402       21.8623481362
  S        12.0043813683        6.4868650463       11.9448608947
  C        11.4719694908        9.1003698591       11.4649154395
  H         5.7218814914       -0.5253438316       38.3869753495
  H         5.6854153565       -2.2825477466       38.4982720143
  H         6.3681300125       -1.4612897495       37.0774185400
  H         2.4665296703       -2.7563575595       17.2207967596
  H         3.8156868790       -2.3906057858       15.8154522484
  H         2.0865994154       -2.6067075547       15.4678253038
  H        18.7102231037        1.9087770438       22.1415640959
  H        17.6143500191        3.0077642098       21.1006177536
  H        17.2526269397        1.3228765461       21.3455078129
  C        12.4315325916        7.3404042093       10.5019094793
  N        12.1476228619        8.6789270324       10.4513902835
  O        11.1497383103       10.2445717909       11.6764694812
  S        13.0186139870        6.5954441375        8.9819436922
  C        12.2707774738        9.4743646933        9.2459072757
  H        12.3299677904       10.5729775805        9.4823833101
  H        13.2413594691        9.3507765770        8.7624761456
  C        11.0434717363        9.4395081635        8.3217770775
  H        10.2150172294        9.7510092942        9.0022162776
  H        11.0728315950       10.3209557671        7.6988982323
  H        10.9429780437        8.5945589867        7.6800203549
  H        21.6801341246        9.0587205986        3.8663158935
  C        22.1094626794        9.9636387518        3.5862300061
  H        23.0011193770        9.6633081606        3.0217859695
  C        22.5557977774       10.6303906583        4.9423273657
  C        21.2846572390       10.8260899415        2.6798495782
  C        21.3390972281       10.7480051405        5.8191714280
  H        23.2222232367       10.0018425577        5.4884600081
  H        22.9755911059       11.6281156759        4.8117603809
  H        20.2751978609       10.4432363506        2.8842110909
  H        21.5203766105       10.8827400659        1.6212362565
  H        21.3364316904       11.8939010579        2.9994825737
  C        20.8833383423        9.3670506578        6.2915181025
  H        21.6661522363       11.3942420681        6.6655218829
  H        20.5407387398       11.2765490420        5.2940881348
  C        20.2523095879        9.5645754571        7.6668471273
  H        21.6741416436        8.6084783454        6.2093913663
  H        20.2570861200        8.9747378075        5.5720960222
  C        19.0689910526       10.5791209556        7.7736309783
  H        21.0333472376        9.9497918359        8.3786428178
  H        20.0033452794        8.6349085434        8.0682294729
  C        17.7356157209        9.9127587526        7.4221730008
  H        19.1644563268       10.8831168881        8.8294724381
  H        19.3327623619       11.5148742418        7.2561605791
  C        16.5624492082       10.8722770844        7.1295720096
  H        17.4772394721        9.1882536818        8.2370075179
  H        17.9275689536        9.2671092731        6.5434781988
  C        16.9710488611       12.2679314171        6.5701306203
  C        16.0953599255       11.4704942136        8.3919001283
  C        15.4598206635       10.2018032391        6.3576990242
  C        16.6996800907       13.3020540515        7.4274517106
  C        17.5390156132       12.6354486382        5.3673971810
  C        16.1731864884       12.8058039466        8.5889474412
  C        15.6385397891       10.7622775197        9.5013848374
  H        15.7873158873        9.8604635536        5.3862751847
  H        15.2410710262        9.2430693405        6.8101355926
  C        14.2142778433       11.1317241659        6.1462266511
  S        17.2660180109       14.8001024974        6.7685364784
  C        17.6818087885       13.9825032932        5.2648822451
  H        17.6110962626       11.8451576391        4.6786614248
  C        15.7721235856       13.3477403090        9.7558995053
  H        15.6665037900        9.7024154667        9.6099801433
  C        15.2857159922       11.2754740427       10.6879663578
  H        14.5551672494       12.0173591359        5.5781875952
  H        13.7470159290       11.4305502083        7.1080014097
  C        13.2810245543       10.6217453643        4.9788268982
  C        18.2497250796       14.6795582937        3.9738827775
  C        15.3493790086       12.6204239864       10.8243592865
  H        16.0088464675       14.3713466471       10.1160752415
  C        14.7724451528       10.9034362288       11.9280850581
  H        12.3607664523       11.2021781577        4.9358335791
  H        13.0108639437        9.6394758063        5.2746582892
  C        14.0083497022       10.6143352556        3.6120562026
  C        18.1654149706       16.0479402393        3.7217183203
  C        18.8211046872       13.8281455104        2.8776934059
  C        14.9640902129       13.2783318987       12.0960968308
  C        14.6575464416       11.9330507905       12.7568708780
  S        14.5394651701        9.3602993255       12.6753870050
  H        14.7317817917        9.8031591107        3.6188343424
  H        14.5038021930       11.5977330287        3.3962527738
  C        12.8839777975       10.2437698521        2.6023867557
  N        17.7921234638       17.0638913441        4.6027802762
  C        18.4339993842       16.5902445751        2.4589250932
  C        19.2083495499       14.3782499915        1.6844602365
  H        18.8349433103       12.7688985883        3.0113555184
  C        13.6914305780       14.1752220885       11.9519750337
  C        16.0545828535       13.9857393333       12.9047629983
  C        14.3468438656       11.5010380667       14.0893796739
  C        14.2194497422       10.1340128259       14.2175106832
  H        12.0050190632        9.7178254494        3.0174255350
  H        12.4906964553       11.1821024032        2.2082180920
  C        13.3007245932        9.3531860021        1.3917788418
  S        17.8748354958       18.4827671763        3.8316005110
  N        18.1925674366       17.9598661090        2.3647385539
  C        18.9096771978       15.8165314963        1.3682168770
  H        19.5796467922       13.5919176336        1.0256662563
  H        13.9022366657       14.9074809998       11.2053963659
  H        13.5622689038       14.7531963553       12.8555497855
  C        12.4307152606       13.3837222490       11.5553891565
  H        16.4036529036       14.7983682684       12.3019097364
  H        15.5793342869       14.4732897767       13.7796547142
  C        17.3373557891       13.2181190275       13.3668555293
  H        14.1782906982       12.2618327758       14.8366673711
  C        13.7338273042        9.3706048175       15.3997749298
  H        12.6365517870        8.5436757045        1.1712545505
  H        14.0675688377        8.7080428495        1.7382690422
  C        13.5732998235       10.2327022186        0.1693443882
  C        19.0885870125       16.3869513640        0.0230022476
  H        12.5974416478       12.6064474119       10.8306092879
  H        12.0302556992       12.8423060112       12.4417478874
  C        11.4367698819       14.4094477437       10.9896575744
  H        17.7037550433       12.5843385891       12.5462535488
  H        17.0882200959       12.6676950316       14.3048423440
  C        18.5102191355       14.1981074675       13.8516308638
  C        13.6245591294        8.0126705212       15.5301657030
  C        13.4822085379       10.0871106805       16.6479011380
  H        12.8112806395       10.9866509610        0.1167645808
  H        14.4765125833       10.8447571777        0.2465112375
  C        13.5572525344        9.5570753938       -1.1284718438
  H        18.7339790676       17.3759185804       -0.0484973960
  C        19.4872265615       15.9347711178       -1.2079179170
  H        11.8960182820       14.8201492505       10.0868357089
  H        11.0499769827       15.1440456670       11.7861326375
  C        10.1973514345       13.6163833493       10.6728090799
  H        18.9295151809       14.6402545969       12.9595523189
  H        18.1756095222       14.8855797932       14.5927722390
  C        19.6565689140       13.2892319899       14.3221055095
  N        13.7657476762        7.1409882448       14.4246778669
  C        13.3329711803        7.3608870764       16.7199916788
  C        13.1083034769        9.4773316733       17.8408496836
  H        13.4873184152       11.1747982686       16.6801584200
  H        14.4726757004        8.9379896145       -1.3035142838
  H        13.6734596569       10.4024792723       -1.8723602246
  H        12.6438106954        9.0146337967       -1.3058775158
  S        19.9681238093       14.3551791789       -1.5884782634
  C        19.4955989203       16.8883997186       -2.3477970149
  H        10.4238971909       12.5395887443       10.7098255328
  H         9.4523895887       13.8498541074       11.4301156457
  C         9.4954222208       14.0965676006        9.3492356236
  H        19.9352845564       12.6438730827       13.5295916389
  H        19.3654591843       12.6894880383       15.1251377983
  C        20.8550915655       14.0914654575       14.7824849430
  S        13.8633321934        5.6138369054       14.9772151202
  N        13.4319084074        5.9711630465       16.5060366303
  C        13.0165464067        8.0555657051       17.9114021655
  H        12.8458347454       10.1048953170       18.6000539163
  C        20.3482248674       14.9451646393       -3.2426266743
  N        20.1120480532       16.2385404963       -3.3646618142
  O        19.2225222526       18.0608939982       -2.4356323012
  H         9.0749121571       15.0025353019        9.5212546758
  H        10.0953230128       14.3995090208        8.5262605707
  C         8.5512816555       13.0798617166        8.9248861121
  H        20.5962275323       14.8439891130       15.4733276982
  H        21.4311437275       13.3736866611       15.4836503177
  C        21.7629092570       14.5419592228       13.6615183582
  C        12.7037463238        7.3319192237       19.1330661577
  S        20.6922502251       14.0725217337       -4.7527149282
  C        20.1184803607       16.9544281854       -4.5914932931
  H         9.1528493569       12.4896159695        8.2598813358
  H         8.2626516456       12.3648976531        9.7757579848
  C         7.2358277624       13.6417204404        8.3242971457
  H        21.1026498701       14.5717485974       12.7699272545
  H        22.5065866048       13.8437804939       13.4055205887
  C        22.4295942483       15.8579675795       14.0031555720
  H        12.9549439056        6.3125568503       19.1010383179
  C        12.4134813758        7.8314130068       20.4228571532
  H        20.8824283237       16.5240388417       -5.2516433472
  H        20.5408205594       17.9876250778       -4.4260452514
  C        18.7522087408       16.8948097188       -5.1843142613
  H         6.8587483997       13.0183955474        7.5570544316
  H         7.4069980444       14.5568323336        7.8888931730
  C         6.1644386661       13.7459081661        9.5530420805
  H        22.7534331291       15.7681451791       15.0640035385
  H        23.3290430872       16.0661708761       13.4380088040
  C        21.4606374823       17.0775071839       13.9696774320
  S        12.1574109285        9.4037190044       20.8866517385
  C        12.2952231560        6.7365094631       21.4525194698
  H        17.9513261109       17.2842485048       -4.5494894193
  H        18.4730310133       15.9794851860       -5.7171578696
  H        18.9378410135       17.6922517270       -5.9148745929
  H         6.4460995806       13.0243304981       10.3901399145
  H         6.3472701349       14.6570640892        9.9643107072
  H         5.1724534772       13.4509533533        9.1831746012
  H        21.3011846572       17.6106796775       13.0290532874
  H        20.4906149166       16.6889778616       14.1737229341
  H        21.7191282366       17.8010556230       14.7343895437
  C        11.7699041522        8.6001100080       22.4559501626
  N        11.8372638688        7.2371394450       22.5692993714
  O        12.5996108281        5.5267452384       21.3020622760
  S        11.3909375418        9.5147668731       23.9558408456
  C        11.5788296610        6.4226292049       23.7562381395
  H        11.5296787333        5.3563772696       23.5179697383
  H        10.6899542234        6.7501507153       24.1599638459
  C        12.5848814672        6.7003581355       24.8403891455
  H        12.1735767285        7.2026012104       25.7146366737
  H        13.3749087943        7.2982763530       24.5058359693
  H        12.9732103506        5.7938249044       25.2371450484
