352
 i =    34800, time =    34800.000, E =        24.7979207704
  H        12.0821946809        7.1558362853       32.2778397582
  C        11.5413453343        6.2124236729       32.3837842898
  H        12.1905212310        5.3252230591       32.2011121230
  C        10.4413311293        6.2043860426       31.2873161736
  C        10.8419107459        6.0297344430       33.7746856489
  C        11.1242389399        6.1870964042       29.8994997790
  H         9.8553129295        5.2434996536       31.3408345792
  H         9.8592222772        7.1134655028       31.3423475576
  H        11.0287060252        6.8645664945       34.4748892286
  H         9.7968104777        5.8008696228       33.7358001113
  H        11.2639049508        5.2128283420       34.3390168349
  C        10.0618463947        6.2445881644       28.8089235211
  H        11.7672369933        5.3118966483       29.7972508665
  H        11.6257125207        7.1180813614       29.8988657748
  C        10.6290979403        5.9851056349       27.3645481431
  H         9.2455944409        5.5675694072       29.0495104475
  H         9.6033660912        7.2370385524       28.8337414141
  C         9.6150443040        5.3568276287       26.3637435726
  H        11.5908878235        5.4741235863       27.4402052458
  H        10.9095840482        6.9598613434       27.0150263905
  C         8.4329995164        6.2422310136       25.9617131225
  H        10.1187863942        4.9739072317       25.4813176207
  H         9.2655082864        4.4198618586       26.7796277250
  C         7.3193138399        5.4226938121       25.1890289525
  H         8.0120009965        6.5520018825       26.9166586829
  H         8.7020683672        7.1980170859       25.4116546991
  C         6.9540008848        4.0259792954       25.8584924323
  C         7.7552096372        4.6945045715       23.8743333546
  C         6.1211575184        6.3477540762       25.0379651619
  C         7.1997024332        2.9387930066       25.0290528046
  C         6.4906935663        3.6397999692       27.1512431256
  C         7.6858511656        3.3410633309       23.8161074540
  C         8.2222234562        5.3499280616       22.7194560494
  H         6.4610318292        7.1790162289       24.3501162567
  H         5.9046931299        6.9275695684       25.8882053945
  C         4.9264787113        5.5768385826       24.5136894332
  S         6.7836708703        1.4262001999       25.7361875401
  C         6.4280818475        2.2550110227       27.2187707692
  H         6.3092279345        4.4190317800       27.9096063391
  C         7.9958586802        2.7327079203       22.5899329734
  H         8.2455868958        6.3775441210       22.5919363138
  C         8.6235145791        4.6450893823       21.6149792741
  H         4.9735204319        5.5066440100       23.4211226057
  H         4.7858452620        4.5714539941       24.9214520866
  C         3.6027659741        6.3145607473       24.7379357319
  C         5.9489541753        1.5540147202       28.4353311509
  C         8.5128472746        3.3253604288       21.4583277666
  H         7.9044116587        1.6823524163       22.6118279003
  C         9.2000423202        5.0270913222       20.4053336030
  H         2.8479353015        6.0707590756       24.0041976947
  H         3.7769500576        7.3481867046       24.4775207345
  C         2.8945198259        6.2551837853       26.1387766439
  C         6.0470080512        0.1660178244       28.6710059107
  C         5.4334550986        2.3224572616       29.6132728552
  C         9.0825565124        2.5492060037       20.2579361693
  C         9.3338460324        3.9522875107       19.5487836650
  S         9.5864545786        6.5451909502       19.7171311504
  H         2.0752518265        6.9830776875       26.1554997907
  H         3.5672570894        6.5600298935       26.9813091632
  C         2.2964141008        4.9225012451       26.5124884416
  N         6.5402194609       -0.8246365757       27.7772749504
  C         5.6593688461       -0.4385515318       29.8328130149
  C         5.0638243867        1.7379468606       30.8464840086
  H         5.3115129280        3.3858879931       29.4939352941
  C         8.0964589809        1.6848253850       19.3979834901
  C        10.4016139735        1.7509866991       20.5308086239
  C         9.6566936131        4.3771793797       18.2365783081
  C         9.8300503890        5.7472521579       18.2327596310
  H         1.5788025553        4.5719025850       25.7581842851
  H         3.0929576487        4.2019063581       26.6764509703
  C         1.3030565641        4.9695577749       27.6278048712
  S         6.3821965096       -2.2999542652       28.3968025378
  N         5.7602488692       -1.8285580136       29.8258786154
  C         5.2735493791        0.2902277733       30.9994201605
  H         4.6154744908        2.4243127994       31.5992232995
  H         8.0069406239        0.6934486491       19.8272794218
  H         8.6239721400        1.5731332776       18.4219729839
  C         6.6822955210        2.3016074466       19.1132272836
  H        10.7102911440        1.4103435866       19.5528111999
  H        10.2449376163        0.9102879804       21.2143085064
  C        11.6208153467        2.4618856928       21.0442431169
  H         9.8019538624        3.6499443179       17.4261344670
  C        10.2319769863        6.4840120437       17.0269238038
  H         0.9729732230        4.0008156767       27.9425842076
  H         0.5279468543        5.5046786654       27.2191648230
  C         1.7511237445        5.6602499251       28.8689013403
  C         4.9634561756       -0.4832827036       32.1858932792
  H         6.7948577089        3.2882927117       18.6648897361
  H         6.2537546791        2.5196221386       20.0558438658
  C         5.8281811940        1.3332411306       18.4541468574
  H        11.2901589313        2.7763847959       22.0574444536
  H        11.8112620938        3.2949572828       20.3789367043
  C        12.8624831974        1.5264059843       21.2668530257
  C        10.3914954077        7.8324605517       16.8848630017
  C        10.5148618493        5.6674751098       15.7581581543
  H         1.7468649406        6.7339733044       28.7361940921
  H         1.0327227580        5.4373728143       29.7066444579
  C         3.0684607156        5.1415343594       29.3916808243
  H         4.9093539596       -1.5560839065       32.0140730533
  C         4.7391336335       -0.0820643309       33.4743891820
  H         5.5082936743        0.6507788817       19.2742499219
  H         6.3309418171        0.7441341107       17.6344182149
  C         4.6023361600        2.0648507459       17.8745742161
  H        12.8195799959        1.1221298313       22.2931655471
  H        12.7667382949        0.6201356060       20.6900524294
  C        14.1600284055        2.1739756261       21.0189005595
  N        10.1231773439        8.7455018466       17.9043907291
  C        10.7482209065        8.5053364873       15.7082541119
  C        10.9445397107        6.2811552127       14.5764932965
  H        10.4005933216        4.5850628970       15.7224666751
  H         2.9750987077        5.4265057561       30.4134780199
  H         3.2820570175        4.1223174372       29.2081660094
  H         3.8853484687        5.7209638151       28.9436641204
  S         4.5424497425        1.5530132496       33.9904326176
  C         4.6298972321       -1.0909093780       34.5616507343
  H         4.4245698707        3.0946729464       18.2516658577
  H         4.8199860998        2.1484846593       16.8594884800
  C         3.2262402913        1.3697318878       17.9753256562
  H        13.9672174623        2.7700151620       20.1822832800
  H        14.8510298539        1.4522610163       20.6534865425
  C        14.7916207714        3.0355196668       22.1552198006
  S        10.2932360802       10.2497253102       17.3224379057
  N        10.7304360238        9.8619516032       15.7901291674
  C        11.0403003214        7.7606128027       14.5073557806
  H        11.2615760544        5.6417792222       13.7422836760
  C         4.0923321440        0.8672024143       35.5771707552
  N         4.2684324717       -0.4838201953       35.6808890277
  O         4.8622033158       -2.2937993314       34.5031617997
  H         2.5418093544        1.9572910069       17.3719485901
  H         2.9149917928        1.3872480120       19.0251513920
  C         3.1847010165       -0.1018322060       17.4464232930
  H        15.6366483563        3.6152397914       21.8079249346
  H        14.1141718977        3.7168482351       22.5378450634
  C        15.2190248550        2.2002250187       23.3532421412
  C        11.4430692038        8.4597742253       13.3135616953
  S         3.7256091109        1.7582237290       37.0604808325
  C         4.2541924764       -1.2289582029       36.9625788769
  H         2.8943456617       -0.1243878191       16.4411090082
  H         4.2020068893       -0.5215475328       17.3992348142
  C         2.2249132893       -0.9890496369       18.1182519651
  H        15.0254876854        1.1309545276       23.1283409653
  H        14.5766324606        2.5202728151       24.1155596941
  C        16.6035983576        2.5573685609       23.9677424959
  H        11.1129155480        9.4996304233       13.3569403768
  C        11.9994330348        8.0931286857       12.1585436890
  H         3.5210457208       -0.8324640711       37.6325146552
  H         3.9590512893       -2.2692674214       36.8463087301
  C         5.7010335847       -1.3392520782       37.4959747212
  H         1.2934108841       -0.4350333070       18.1596460509
  H         2.4316608668       -1.1645102243       19.1922793026
  C         1.7134818367       -2.2878488103       17.4603006567
  H        16.4882279092        3.4662289827       24.4547605292
  H        16.8420533683        1.8541468688       24.7450390006
  C        17.7697689401        2.4712770554       23.0063758458
  S        12.5908007292        6.5534306381       11.7269631579
  C        12.1446625137        9.0994163695       11.0708686853
  H         5.7362695630       -1.9019180805       38.4196040812
  H         6.4652082770       -1.6999092164       36.8116772297
  H         6.0350493428       -0.3327491661       37.7359966768
  H         0.8751041751       -2.7534289274       17.9928143159
  H         2.5569014923       -2.9856347503       17.4959660408
  H         1.4148925492       -2.1583076438       16.4303713695
  H        18.6142318675        2.5106594935       23.7133545957
  H        17.8784007431        3.3917917616       22.4461525703
  H        17.8230360767        1.5809661589       22.3508412035
  C        12.9848211731        7.2001430691       10.1418194237
  N        12.8267365234        8.5484976193       10.0300641126
  O        11.7988565200       10.2939654929       11.0915186616
  S        13.7895887506        6.2908133403        8.8166096301
  C        12.9047676267        9.2941063294        8.8063032075
  H        13.1228722792       10.3000314510        9.1283926230
  H        13.7897793933        9.0759367436        8.3180821357
  C        11.6405085389        9.1003097593        8.0813078519
  H        11.3904082108        8.0369985516        7.9885126185
  H        10.7661135718        9.5535071170        8.5752418612
  H        11.6836494242        9.4524982793        7.0546993950
  H        21.1428838010       11.6539732295        3.4971239694
  C        21.6286800822       10.7178207857        3.3222802927
  H        20.8841003206        9.9963315486        3.6022031721
  C        22.7285531778       10.6510313945        4.4302197933
  C        22.1702961705       10.5995994909        1.8505567891
  C        22.1408873546       11.0366803386        5.8074139163
  H        23.0903343697        9.6611693087        4.5319346984
  H        23.4552768604       11.4704326794        4.2374426325
  H        21.5120423778       11.0741645510        1.0639820754
  H        22.3334619809        9.5699523981        1.7339274855
  H        23.1209764559       11.1429995867        1.8838393596
  C        21.4914491313        9.8720466721        6.4582074193
  H        23.0083792379       11.3212597606        6.4514765741
  H        21.4902772351       11.8734693671        5.6076854737
  C        20.7655599489       10.1636856854        7.7972992088
  H        22.1776155018        9.0756599556        6.7107707374
  H        20.8336956358        9.4239124873        5.7100052086
  C        19.4321666356       10.9521584420        7.7384237554
  H        21.4946869205       10.7553432584        8.3803905049
  H        20.5248203506        9.2116219512        8.3296851406
  C        18.2310549891       10.1170282948        7.1755826953
  H        19.2091959224       11.2466528688        8.7445045204
  H        19.4988468419       11.7699516312        7.0806293265
  C        16.8838940492       10.9861749728        6.9003019058
  H        17.8911796179        9.4926247198        7.9512588774
  H        18.5438558082        9.4854002157        6.3867852075
  C        17.1267874244       12.3298976895        6.2363900725
  C        16.3903217481       11.6934264475        8.1662746365
  C        15.7079958607       10.1975482293        6.2442885566
  C        16.8159502340       13.4228862844        7.0474774599
  C        17.6121333775       12.7331768131        4.9894074305
  C        16.3590020388       13.0131002231        8.2716368819
  C        16.0406026710       11.0790337020        9.3607682255
  H        16.1526203834        9.7103556065        5.3538114739
  H        15.3565086181        9.3365692331        6.7651175543
  C        14.5236760989       11.1978751879        5.9153791604
  S        17.1461376770       14.9005229683        6.2775412687
  C        17.6767861616       14.0967906586        4.8394102643
  H        17.8415966770       12.0517109607        4.1641081366
  C        15.8965436831       13.6248189911        9.3689829914
  H        16.0942904464        9.9794922531        9.3277705242
  C        15.6394468919       11.6673243984       10.5147047730
  H        14.9271880187       12.0886535928        5.4193158437
  H        14.0903702529       11.6069572970        6.8471289289
  C        13.4880700771       10.4826061877        5.0617519053
  C        18.1239738196       14.7908085034        3.5300832191
  C        15.5332552132       13.0040649164       10.6033549056
  H        15.9130598953       14.7102345988        9.4039703215
  C        15.2615860395       11.2906943583       11.8035278004
  H        12.5354742012       10.8890323794        5.3552350384
  H        13.2948497097        9.4436095338        5.3831604530
  C        13.8333254605       10.7227013192        3.6043767197
  C        18.1520097952       16.2129437595        3.2712326639
  C        18.5406868746       13.9819605929        2.3447495204
  C        15.1808028868       13.6703703447       11.9132367747
  C        14.9635724894       12.3253012386       12.6539379261
  S        15.0211724605        9.7924605537       12.6190205164
  H        14.7879201763       10.3609189429        3.2617731474
  H        13.9316983752       11.8508202954        3.5561085772
  C        12.8840574648       10.1203285212        2.6020147941
  N        17.7332087790       17.1969433819        4.1800729149
  C        18.4455670617       16.7377262504        2.0775513571
  C        18.9324082149       14.5278347548        1.1172653807
  H        18.4090427210       12.8858149718        2.2853995838
  C        13.8964190530       14.5480731330       11.7289640748
  C        16.2781893926       14.4695453064       12.6111414233
  C        14.6794699658       11.9172241469       13.9633361077
  C        14.6730485555       10.5328358475       14.0924747282
  H        12.4709233123        9.1792059516        2.9105713121
  H        12.0518568312       10.7864554520        2.3081540408
  C        13.6451369720        9.8891321660        1.3251800678
  S        18.0207235467       18.5957029125        3.5063992944
  N        18.3253238015       18.1333055393        2.0155289564
  C        18.9048955635       16.0045703070        0.9627961099
  H        19.5128955912       13.8546249336        0.4960421478
  H        13.9868181365       15.4002487381       11.0995663553
  H        13.5672535221       14.9095049330       12.6777310253
  C        12.8120056073       13.7146243287       11.0927483258
  H        16.3285988646       15.4935638092       12.3232497264
  H        15.9768552846       14.4805410994       13.6613121275
  C        17.7206034770       13.9183345624       12.4955350073
  H        14.4636130789       12.7245351587       14.6440644284
  C        14.2039022759        9.6967948505       15.3193998481
  H        14.4782573825        9.1257275634        1.4147723737
  H        13.9955823407       10.8081038507        1.0051511908
  C        12.7353226709        9.4360980401        0.2015897082
  C        19.0672458608       16.6863951859       -0.3086345011
  H        13.1619164556       13.3270441698       10.1437593156
  H        12.6800965062       12.7572551485       11.6243943194
  C        11.4548128807       14.3754113486       11.0336313614
  H        18.1392701603       14.1429840250       11.5050888260
  H        17.6510730963       12.8591684755       12.4381119425
  C        18.6338600171       14.3932332185       13.6813839542
  C        14.2348534898        8.2738747375       15.5098990944
  C        13.9691607479       10.4191332903       16.6479063144
  H        12.5489255989        8.3264067926        0.2282526532
  H        11.7839253386        9.9365109717        0.2956951059
  C        13.2705534449        9.8799577873       -1.1352157436
  H        18.6898306971       17.6288219925       -0.3475397681
  C        19.3676939452       16.2438742633       -1.5899042763
  H        11.5530430193       15.1909743218       10.3316721775
  H        11.2112226869       14.8874553606       11.9210167389
  C        10.3472469327       13.4178908006       10.7244835807
  H        18.6727928937       15.5100144450       13.7329102367
  H        17.9954541180       14.1541620966       14.6352057063
  C        20.0768408303       13.8004418041       13.9048418668
  N        14.5558509969        7.3476192425       14.5214906208
  C        13.9056571243        7.6172083251       16.6846147652
  C        13.8659604264        9.7025016262       17.8504347761
  H        14.1021777392       11.4631068996       16.6649551137
  H        13.4973281044       10.9452950241       -0.9631821963
  H        12.4322058851        9.7134716616       -1.9086184693
  H        14.1734404062        9.3273846198       -1.4078348101
  S        19.8539903775       14.6699436902       -1.9855714230
  C        19.2722879883       17.1141403333       -2.7802903170
  H        10.7049319679       12.4088649497       10.5409218485
  H         9.8007095463       13.3447725644       11.6325881440
  C         9.5715580322       14.0598141208        9.5535496829
  H        20.3093639894       13.2666450655       12.9509926181
  H        20.1655665646       13.1792316308       14.7697634894
  C        21.0427919458       15.0517293473       14.0217080760
  S        14.5239334606        5.8460732289       15.1181900316
  N        13.8905280248        6.2339967019       16.5568285313
  C        13.6449752046        8.2299602220       17.8978946038
  H        13.5637745213       10.3331455058       18.7140368588
  C        20.2521406853       15.2604096324       -3.6184795044
  N        19.9444379306       16.5299683367       -3.7527871595
  O        18.8868266901       18.2588413388       -2.7396507545
  H         8.9774036010       14.8911221568        9.9237257987
  H        10.2663770038       14.4695402777        8.7721346161
  C         8.5208969066       13.1005640077        8.8395883781
  H        22.0416253911       14.7206597518       13.7879158389
  H        20.9665353853       15.7898057685       13.1977807118
  C        20.8670729645       15.8096943158       15.3625610774
  C        13.4391829371        7.4827997847       19.0964702883
  S        20.6541027374       14.2205043982       -5.0214813392
  C        20.1290244583       17.2375058605       -5.0566667348
  H         8.9493385990       12.9815237937        7.8357251893
  H         8.5050872183       12.1014938780        9.3288337669
  C         7.0675486215       13.6884887317        8.8976300418
  H        20.7146136018       15.2028083658       16.2425358884
  H        19.9225237846       16.3295409046       15.3734325994
  C        22.0952434797       16.7060269988       15.4669560181
  H        13.6419362814        6.4467109134       18.9728606258
  C        12.7422011188        7.8437084537       20.2429037815
  H        21.0662653064       16.8805123134       -5.5755027023
  H        20.5074759289       18.2865922190       -4.9641951367
  C        18.8831742238       17.2296275029       -5.9447682770
  H         6.5106081684       13.4831807411        7.9956438159
  H         7.1299032615       14.7752901322        8.8730461907
  C         6.2861449082       13.3989340880       10.1552283577
  H        22.3150293556       16.5178670340       16.5730801143
  H        23.0303404563       16.3854477132       14.9958748664
  C        21.8424809668       18.1563538599       14.9275683500
  S        12.2550335397        9.4365001747       20.7242061779
  C        12.5042631719        6.8290827890       21.3041783097
  H        19.1437246532       17.4451885256       -6.9856706660
  H        18.2210457057       18.0932435938       -5.7352444864
  H        18.3189318103       16.3022070078       -5.9002593608
  H         5.4977255066       12.6199795894       10.1123525641
  H         7.0515404790       13.0806074504       10.9491596762
  H         5.7795959532       14.2017752121       10.6482935838
  H        21.0883322830       18.6501572427       15.5205334962
  H        22.7718405316       18.6701804058       15.0699419467
  H        21.6329637230       18.1507128189       13.8501731544
  C        11.6986572202        8.6665311637       22.2423639936
  N        11.7786811294        7.2887229032       22.3404756880
  O        12.8587781904        5.6859411255       21.1462127674
  S        11.1249627941        9.4620422720       23.6895762629
  C        11.4127503083        6.4551386687       23.4772182622
  H        11.1991465010        5.4824631841       23.0578931959
  H        10.5229053437        6.7601086712       23.9990155631
  C        12.5687930360        6.3351480545       24.5087186728
  H        13.5599133947        6.5330866464       24.0366710042
  H        12.6360870427        5.3546630363       24.9985539186
  H        12.5315246915        7.0427575232       25.3183226021
