352
 i =    16500, time =    16500.000, E =        24.1363155215
  H        12.5783293268        6.2317084346       32.2301681546
  C        11.8599966076        5.4314206713       32.3770628841
  H        12.3560622042        4.4936649628       32.1918934441
  C        10.9511382316        5.6762747166       31.2382689131
  C        11.3193322878        5.4254496652       33.7890650388
  C        11.5362397876        5.3159464310       29.8635125008
  H         9.9701742868        5.3377173174       31.4735126736
  H        10.7340382549        6.7379052685       31.1027261554
  H        12.1021371241        5.0082578148       34.4157043961
  H        11.0422335710        6.3737182242       34.2297586813
  H        10.4639197299        4.7653797877       33.8623960073
  C        10.4301654467        5.0788457380       28.8751865198
  H        12.1701246910        4.4506514053       29.9303925513
  H        12.1589830645        6.1541714497       29.6075366353
  C        10.8703335931        5.0512775623       27.4534332183
  H        10.0287499658        4.1091875841       29.0498069562
  H         9.6936727561        5.8772954131       28.8432301904
  C         9.9401445584        4.7701832280       26.2986264902
  H        11.6981031315        4.3747290194       27.3945418722
  H        11.3752027171        5.9555275337       27.2136524242
  C         8.6752890773        5.5710298747       26.0285301522
  H        10.5012489725        4.7553851322       25.3726941800
  H         9.7755914959        3.6434740981       26.3606615182
  C         7.4627592544        4.8394567119       25.2880179564
  H         8.2545109612        5.8262865973       26.9898553044
  H         8.8767983009        6.4934273822       25.5744754331
  C         7.1098748693        3.5745316502       26.0431866430
  C         7.8920790661        4.1244999147       24.1413340761
  C         6.2068294555        5.7768230831       25.0390729495
  C         7.3232382069        2.4643513231       25.2323870418
  C         6.5067367220        3.2129857721       27.2758059982
  C         7.7541181575        2.8446449149       23.9732798024
  C         8.3295649140        4.9196802215       23.0433129216
  H         6.6530353577        6.6092177391       24.4344934089
  H         5.7851727198        6.2877837676       25.9181894260
  C         5.0358625449        5.0616837111       24.3004550746
  S         6.8473764111        1.0090584925       26.0589331457
  C         6.4026885808        1.8683448480       27.4840062094
  H         6.2107177379        4.0054328466       27.9926780089
  C         7.9977901362        2.3366653554       22.7257843721
  H         8.4467023000        6.0208816178       23.1076284119
  C         8.6311554388        4.4172106747       21.8329358965
  H         5.5421732341        4.7166793324       23.4097788855
  H         4.9161563907        4.0784643985       24.7638101686
  C         3.7218817271        5.8693993783       24.0195759468
  C         5.9966198565        1.0857436421       28.7635229584
  C         8.5179543117        3.0728666429       21.6382823415
  H         7.8976928976        1.2518378406       22.6826617102
  C         8.9489986728        4.8691050477       20.6017436056
  H         3.1578314248        5.2600476412       23.3089636970
  H         3.9673672987        6.7480402058       23.4564401815
  C         2.8874115139        6.1883072910       25.3013354814
  C         6.0338720389       -0.3216912701       28.9680954435
  C         5.5230087604        1.7950607254       29.9489285969
  C         8.8018894185        2.4196017243       20.2805252889
  C         9.0289188327        3.8304306754       19.7025660562
  S         9.2681701349        6.4179949948       19.9096813301
  H         2.1678057674        6.8694143697       24.9787226640
  H         3.4931371925        6.7177065165       26.0369350901
  C         2.3942015768        4.9383028638       26.0595569624
  N         6.2024516175       -1.2896436586       27.9284847843
  C         5.9116020130       -0.8846997515       30.1770293148
  C         5.2630253005        1.2019904595       31.1288408731
  H         5.4303024840        2.9236259779       29.9343002007
  C         7.5737295427        1.6909773695       19.6316955212
  C        10.1396674271        1.5636244204       20.2920103448
  C         9.3427877734        4.3137121775       18.4051111546
  C         9.4655936712        5.7059244950       18.3372727259
  H         1.7287306581        4.4244529693       25.3734855102
  H         3.1644544528        4.2356664318       26.2895294401
  C         1.5050879654        5.1382488370       27.3066415555
  S         6.2163334951       -2.7467460987       28.5781097835
  N         5.9410530074       -2.2811897711       30.0988396450
  C         5.5751799504       -0.2109028002       31.3632601421
  H         4.8604052258        1.8215774129       31.8840678776
  H         7.1123792208        0.9322532343       20.3416442823
  H         7.9427490594        0.9906482284       18.8360290397
  C         6.4648149711        2.5864667246       19.0245981630
  H        10.4517319470        1.3293392727       19.2772100476
  H         9.9616969786        0.6474265356       20.8528555389
  C        11.2780639671        2.3546807301       20.9579648766
  H         9.4982964297        3.5739991843       17.5521980269
  C         9.8062629924        6.5064806171       17.1407505722
  H         0.8399850624        4.3705404846       27.2229315966
  H         1.0023179159        6.0771297233       27.2308910563
  C         2.2507352978        5.0043812830       28.6306520519
  C         5.3865610447       -0.9422674685       32.5564812175
  H         6.8922398580        3.3659195058       18.3222114350
  H         5.9383446554        3.1298190615       19.8456861312
  C         5.5034614923        1.7471602959       18.1775306997
  H        11.0853315256        2.5996288681       22.0432684193
  H        11.3735801192        3.3553593381       20.5705754901
  C        12.6640910925        1.6874543891       20.7915118365
  C         9.8907350110        7.9272574717       17.1104247935
  C        10.1475840981        5.7465812705       15.9015483928
  H         2.8304981863        4.1358621500       28.5643845966
  H         3.0267935320        5.8047190433       28.7027859607
  C         1.3751120150        5.1365026287       29.9176565263
  H         5.6844423070       -1.9315583302       32.4528696771
  C         5.0543407061       -0.5830633828       33.8374448400
  H         5.0568862408        1.0086519150       18.7987221994
  H         6.0965961781        1.3269582126       17.4319689293
  C         4.3862195691        2.5619717244       17.5342572671
  H        12.6464579642        0.7264052674       21.2885077087
  H        12.7406047981        1.4544837528       19.7162524661
  C        13.8254395773        2.6141918047       21.2243904832
  N         9.5503633053        8.7825037057       18.1486814054
  C        10.2987301036        8.5035073362       15.9330746178
  C        10.4231937323        6.4355096152       14.7209691006
  H         9.9786799617        4.6561863328       15.7847357284
  H         0.9709361556        6.1319574879       30.0953718286
  H         0.6092060244        4.3902926310       29.8418507369
  H         1.8437007614        4.9453103040       30.9324639906
  S         4.5859917657        0.9904597836       34.3470162818
  C         4.8694852511       -1.6660950233       34.8009849306
  H         4.2150241549        3.4897390760       18.1364820524
  H         4.6980372834        2.8729632413       16.4766864569
  C         3.0590822306        1.7919063770       17.6594966806
  H        13.8073051705        3.6468476979       20.6806992563
  H        14.6548264240        2.0778921222       20.8322578229
  C        14.0135447709        2.8635554689       22.6905387701
  S         9.9495110550       10.2761583965       17.6439966025
  N        10.3759734551        9.9351150001       16.1185184678
  C        10.5677265452        7.9208478050       14.7215663395
  H        10.7193486254        5.8732734475       13.8773461529
  C         4.1841977892        0.1901532322       35.7914678441
  N         4.4825069951       -1.1502607588       35.9265952113
  O         5.2600930291       -2.8484528849       34.5958422019
  H         2.2143608247        2.4886936793       17.3740974376
  H         2.8163797955        1.5674391799       18.6793999556
  C         2.9852975467        0.4767151157       16.9272140217
  H        14.5304512298        3.8110428627       22.7604814302
  H        13.0492558264        2.9441690669       23.2417657581
  C        14.9015943505        1.7558954938       23.3507184240
  C        11.0213980398        8.7863153505       13.6516838482
  S         3.7971028225        1.0614947794       37.2670090969
  C         4.4620193385       -1.9401954848       37.1657989824
  H         2.3994456956        0.5910802613       15.9924803904
  H         3.9511272859        0.2808054639       16.5584569106
  C         2.4722800535       -0.7287883078       17.7396017323
  H        14.7085360077        0.7797478092       22.9198987299
  H        14.4441173043        1.5390245313       24.3021772575
  C        16.3461748691        2.2128372402       23.5019297102
  H        10.6812234906        9.7757881832       13.7271782741
  C        11.4756257299        8.4685948471       12.3854751957
  H         3.7919866153       -1.5334564615       37.9345727839
  H         3.9471415792       -2.8862515949       36.9474556995
  C         5.8419724041       -2.1412473357       37.7387523541
  H         1.4174927135       -0.5808726430       17.9992385937
  H         3.0580730594       -0.7475395745       18.6667837001
  C         2.7538243502       -2.0414204419       16.9656454586
  H        16.3021943533        3.0003865580       24.1644479397
  H        16.8756695068        1.3474446571       24.0411486907
  C        17.1333356949        2.5842650620       22.2648493108
  S        12.1674360279        6.9833238463       11.8323267641
  C        11.5371404839        9.5861230619       11.4140561691
  H         6.3993720860       -2.6722337865       36.9989335051
  H         6.3175155904       -1.1821966691       37.8307898266
  H         5.9849879448       -2.7352089101       38.6872392350
  H         2.3007112506       -2.6999329086       17.6504950726
  H         3.8927382974       -2.2434268260       16.7355480244
  H         2.1322967397       -2.0166590972       16.0882041637
  H        18.1698618216        2.5703566845       22.4411293142
  H        16.8832387004        3.5984275192       21.9574034555
  H        16.8282908799        1.8923203711       21.4864445790
  C        12.5397358186        7.8846912450       10.3614085845
  N        12.1145461360        9.1470103658       10.2470146163
  O        11.0824701221       10.7258094501       11.5860611068
  S        13.5904010274        7.3163383561        9.1481130081
  C        12.1723794261        9.9989953854        9.0962102461
  H        12.2500101135       11.0595957013        9.2788119102
  H        13.0076404641        9.7198070695        8.4887144401
  C        10.9663201696        9.7783544754        8.1861463051
  H        10.0225596299        9.6701796147        8.7163117941
  H        10.9874715839       10.6048693475        7.5381238997
  H        11.1011404083        8.8350131225        7.5357361782
  H        21.0879898693       10.8577331664        3.5756035417
  C        22.1688769943       10.4691023946        3.6659549701
  H        22.0044615085        9.4010266079        3.6071093199
  C        22.6275930455       10.8664587612        5.0092436067
  C        23.0814641428       11.0442043054        2.6594543780
  C        21.3659846484       11.1238678720        5.8737063575
  H        23.2699422578       10.1098784478        5.4139554122
  H        23.1295290433       11.9230217050        4.9813623624
  H        22.4318629794       11.5124011339        1.8469212100
  H        23.5736114893       10.2211929965        2.1554359821
  H        23.8507679039       11.7262778110        2.9814949089
  C        20.8453209459        9.8035041669        6.3769507058
  H        21.6443406773       11.7295459622        6.7080068628
  H        20.6490053228       11.6775082412        5.3999199184
  C        20.1432551557       10.0476534848        7.7291400577
  H        21.6322693338        9.0736875956        6.5584537315
  H        20.1800695312        9.3048435449        5.6803239381
  C        18.8614253911       10.8841702339        7.6770437136
  H        20.7981262171       10.5918942167        8.4301489215
  H        19.9642813696        9.0405680395        8.1257839093
  C        17.6509865099       10.2001275266        7.1066520863
  H        18.6771702069       11.1700178006        8.6965033928
  H        18.9901674050       11.8524249575        7.1280229174
  C        16.4219978576       11.1387307772        6.8821034112
  H        17.2383894816        9.3538861855        7.6375621984
  H        17.8901850019        9.8077216811        6.1712402076
  C        16.8684983927       12.4830305814        6.2621174456
  C        16.0255201658       11.8071840932        8.1315939420
  C        15.2158876957       10.3934941472        6.0981257842
  C        16.7465982947       13.5343639094        7.1026843942
  C        17.3318583262       12.8570436239        4.9952196803
  C        16.0885445666       13.1448207154        8.2710240875
  C        15.5511409705       11.0950908440        9.3227178860
  H        15.4651207261       10.0006269103        5.1653320990
  H        15.0169435359        9.5001333339        6.7482866561
  C        13.9136917620       11.2626895943        5.9503245021
  S        17.2484431948       15.0139737187        6.4204691306
  C        17.5760914126       14.1983134105        4.8812617403
  H        17.3887317145       12.1054234446        4.2234591534
  C        15.7861271432       13.7307933765        9.4457390963
  H        15.4548553061       10.0220232139        9.2466346199
  C        15.2480584318       11.7043192063       10.5253792755
  H        14.2730449436       12.2333080768        5.6756874831
  H        13.6553127681       11.3206567747        7.0100575062
  C        12.8007432957       10.7868286827        5.0287277202
  C        17.9793476486       14.9088931806        3.5836762588
  C        15.2952054625       13.0620198902       10.5901753461
  H        15.9477333367       14.7964936002        9.4416185188
  C        14.9371566284       11.3144988435       11.7981815312
  H        12.1097617208       11.5567673937        5.2762823885
  H        12.4344810443        9.7187387490        5.0504698854
  C        13.1101002121       10.9738700205        3.5326248112
  C        18.0140965132       16.3266202035        3.3680520230
  C        18.2784779929       14.1329507819        2.3643364742
  C        14.9168115329       13.7845641802       11.8297657300
  C        14.7236752452       12.4559885143       12.5815058175
  S        14.7226838198        9.7988066959       12.6169891838
  H        13.7603696706       11.7625296012        3.3849944810
  H        12.1997459002       11.3516698628        3.0185658482
  C        13.5134460205        9.7098329521        2.6928214015
  N        17.9578953886       17.2542518265        4.4157643805
  C        18.2711872605       16.8858847445        2.1140750718
  C        18.4868768360       14.7223125287        1.1513892167
  H        18.4091776050       12.9923838962        2.4610034017
  C        13.5630687674       14.5967909621       11.8313215142
  C        16.0578916597       14.6516638775       12.4547188753
  C        14.4948473048       12.0275015336       13.9274612577
  C        14.3021879490       10.6850259536       14.0872501186
  H        14.1572662678        9.0611169036        3.2689951761
  H        12.6547498780        9.0108119289        2.5098878327
  C        14.0866747667       10.0842638326        1.2735550322
  S        17.9430242656       18.7471038882        3.7317464173
  N        18.1422523291       18.2669016200        2.2425588537
  C        18.5275872784       16.2118206594        0.9147270752
  H        18.5266914192       14.1220767243        0.2484647292
  H        13.8039328562       15.6119949076       11.6469286722
  H        13.2139468398       14.6599630589       12.8746215700
  C        12.4367732945       14.0319565694       10.9894464423
  H        16.5106470712       15.2277125357       11.7054646478
  H        15.6848237825       15.1564081388       13.2866603654
  C        17.1026207206       13.7391090798       13.0966866690
  H        14.3963242945       12.7890301767       14.6983729098
  C        14.0547071678        9.8968374070       15.3691762089
  H        14.7775143757        9.3081486315        0.9665191089
  H        14.7115498677       10.9946525879        1.2857488774
  C        12.9512349574       10.3056049842        0.2503321621
  C        18.6787029669       16.8852651603       -0.3614643289
  H        12.8873546003       13.8282886811       10.0074083978
  H        11.9657032185       13.1819170211       11.5269003416
  C        11.2349196454       14.9656844775       10.8974700417
  H        17.1808379929       12.9431446509       12.3965749207
  H        16.7691987765       13.3495659920       14.0394733207
  C        18.3928313725       14.4989562108       13.2127344478
  C        13.8870285703        8.4646312966       15.4389396784
  C        13.7285430551       10.5924291637       16.6839024299
  H        12.3140218389        9.4035935015        0.0758876189
  H        12.3515037279       11.1662707864        0.6089493658
  C        13.5112729926       10.6505165513       -1.1200733923
  H        18.7233378080       17.9558294494       -0.2764718143
  C        18.9788910260       16.4907056715       -1.6226208534
  H        11.4068588248       15.5887791367        9.9689885749
  H        11.3230517512       15.5689113767       11.7744920499
  C         9.8539451035       14.2657564662       10.7462367820
  H        18.7043809581       14.6756448493       12.2108284359
  H        18.2206522428       15.3856458786       13.8451554944
  C        19.4606502539       13.6638646363       13.9484470460
  N        14.0920890555        7.4840013331       14.4449035100
  C        13.5916560876        7.8146799234       16.6075331748
  C        13.3854847197        9.9376223667       17.8309860607
  H        13.9368074970       11.6223571000       16.7605324301
  H        12.8744451683       10.2754313134       -1.8935158438
  H        14.4934897969       10.2185469010       -1.1389873887
  H        13.5239129899       11.7212104796       -1.3276237304
  S        19.5166214871       14.9771855283       -1.9853152847
  C        19.0494048146       17.4700114775       -2.7153204495
  H         9.7235546418       13.4309684188       11.4428084509
  H         9.2201351152       15.1183040232       10.9795380916
  C         9.6306967291       13.8162021127        9.2836369247
  H        19.9254154651       12.9548128200       13.2738708129
  H        19.0002334571       13.1330897532       14.7890842380
  C        20.4782871258       14.6866049381       14.5738388372
  S        13.9270622326        5.9306679383       15.0111591225
  N        13.6497359315        6.3894011703       16.5610692714
  C        13.2193426757        8.5146087192       17.8263826164
  H        13.3325436180       10.4709120724       18.7592832473
  C        19.8805472673       15.5570463226       -3.5856020412
  N        19.6842589359       16.9116085470       -3.7734937866
  O        18.6296475121       18.5960018751       -2.5762252007
  H         9.6534722299       14.7738426566        8.7498417833
  H        10.3285616943       13.0673320659        8.8968211627
  C         8.2763964728       13.1127441138        9.1601774116
  H        20.0398589477       15.4794053403       15.2345250697
  H        21.1707024951       14.2021830983       15.3234802895
  C        21.3622240598       15.5252940012       13.6244243722
  C        13.0056592164        7.7666324074       19.0547861225
  S        20.3162678472       14.6328441620       -5.0443569962
  C        19.6358453980       17.5838167639       -5.0755568872
  H         8.2974993707       12.4459784820        8.2987757824
  H         8.0189046485       12.5379739720       10.0579336722
  C         7.1526441013       14.0468252238        8.8078769665
  H        20.9397847569       15.8001858562       12.7484435829
  H        21.9921579747       14.8425096792       13.1841468993
  C        22.1980385105       16.6874941774       14.3157252765
  H        13.2558381329        6.6747557627       19.0128818102
  C        12.4908045914        8.1422357488       20.2790927593
  H        20.5085043856       17.2950545337       -5.6590514090
  H        19.7009334581       18.7211267102       -4.9882525575
  C        18.3550800132       17.2016577357       -5.8393722104
  H         6.8309405507       14.1535965238        7.7563890812
  H         7.3053462718       15.0855824087        9.2483971958
  C         5.9523391811       13.6331840161        9.6014910561
  H        22.5295334687       16.3360394778       15.3129675275
  H        23.0815453617       16.9637014155       13.7531855716
  C        21.3811763253       17.9456090841       14.5804894033
  S        11.7877715029        9.6777660395       20.7308710491
  C        12.4590624634        7.0771055813       21.3518359273
  H        17.6478696054       17.1308295482       -5.0419660334
  H        18.3411372857       16.3046556629       -6.3825859404
  H        18.1786852048       18.0971689299       -6.5325554444
  H         5.9761144206       12.5553853477        9.6006736113
  H         5.8525131773       14.0893969049       10.5497751541
  H         5.0875278616       13.9655001166        9.0556971896
  H        21.9924419297       18.6538181418       15.1494446650
  H        21.0511943662       18.4079781650       13.6965882035
  H        20.4825343889       17.7325524344       15.1513783286
  C        11.3912306454        8.9021543492       22.3060780516
  N        11.8002199258        7.5913444118       22.4245426917
  O        12.8178944770        5.9144956940       21.2440412268
  S        10.6514386980        9.6252759978       23.6717088434
  C        11.6202886710        6.6855729482       23.4841612943
  H        11.2280823296        5.7482407308       22.9973664106
  H        10.7739991714        6.9469008679       24.1124008228
  C        12.8786419400        6.6218342202       24.3126320889
  H        13.6818306340        7.2511658811       23.8029477040
  H        13.1155747160        5.6309108515       24.3641531296
  H        12.7880089119        7.0590267425       25.3207487269
