352
 i =    23600, time =    23600.000, E =        24.8332818804
  H        11.5966997075        7.1435433919       32.6096458119
  C        11.5071333372        6.1223358835       32.2830609561
  H        12.4545008300        5.7865164817       31.7874485711
  C        10.5140183102        6.1649496655       31.1048261956
  C        11.0960720668        5.1652182701       33.4544791373
  C        11.1298238427        5.7282516848       29.7359685270
  H         9.6956347713        5.5548771473       31.3968579149
  H        10.0726037065        7.1728935169       31.0474181162
  H        11.5187115789        4.1902709087       33.3690143201
  H        11.4078771571        5.5729152414       34.4231969229
  H         9.9968540200        5.1354961574       33.3928049012
  C        10.1471717226        5.3476458510       28.7000403533
  H        11.7190786229        4.8450353537       29.9115145026
  H        11.7658536091        6.5633819810       29.4307301625
  C        10.6187601293        5.6760382088       27.3250297522
  H         9.8872776256        4.2758666338       28.8933428996
  H         9.2453293271        5.8379447758       28.9276324455
  C         9.6814951393        4.9777955643       26.2576625365
  H        11.6358628418        5.3417668572       27.2887398268
  H        10.7572230599        6.7120726870       27.0570246209
  C         8.2787745685        5.7362083903       26.1070203185
  H        10.1407730938        5.1510278177       25.3014721009
  H         9.6384330026        3.9103471472       26.4930381837
  C         7.2639739501        4.9151574377       25.2345408937
  H         7.8802898802        5.9487070523       27.1419481984
  H         8.4545709633        6.6846033690       25.5871979334
  C         7.0100892588        3.5086897537       25.8634301887
  C         7.7981349404        4.1831475154       24.0379427986
  C         5.9569612940        5.7678212819       25.0334590101
  C         7.3801964994        2.4091289542       25.0854396677
  C         6.6340831501        3.1128923772       27.1285853929
  C         7.8028661959        2.8556836709       23.8754776262
  C         8.3719434122        4.8707225603       22.9781091230
  H         6.0570754918        6.5601052762       24.2524891198
  H         5.9025360500        6.2674846292       26.0021327461
  C         4.6909999670        5.0677654881       24.4870222570
  S         6.9435147653        0.9094979304       25.8104214837
  C         6.4495568062        1.7655359725       27.2640188847
  H         6.5204003256        3.8480779177       27.8372489331
  C         8.2779809589        2.2508907735       22.7103797088
  H         8.5619384711        5.8894059569       23.0616314586
  C         8.8654182779        4.2717811243       21.8570837833
  H         4.7916226329        4.9517036232       23.4200522672
  H         4.5890007270        4.1332400233       25.0094249719
  C         3.4128764938        5.9126612414       24.6140872676
  C         5.9415034616        1.1340257151       28.5468560843
  C         8.8585204643        2.9189862196       21.6767554244
  H         8.1954426359        1.1836837115       22.5465444155
  C         9.2348402141        4.7404379891       20.6570038028
  H         2.5939889879        5.6285324015       23.9811501841
  H         3.5027392015        6.9994089482       24.3750265522
  C         2.7218829123        5.9205340508       26.0277198004
  C         5.9616027117       -0.2778015921       28.7961515801
  C         5.4667332008        2.0280579033       29.6688913279
  C         9.2022967235        2.2734102879       20.3859474522
  C         9.5312664013        3.6684750414       19.7762728423
  S         9.3636514269        6.2946082215       19.8869939959
  H         1.9126977404        6.6424722756       25.8797515788
  H         3.5237916594        6.3750044833       26.5960212958
  C         2.3815802890        4.5273886141       26.6103105666
  N         6.3389302244       -1.2683941537       27.8956692560
  C         5.7181052943       -0.7885469213       30.1046560645
  C         5.0669114112        1.5130877432       30.8569153090
  H         5.3884202888        3.1144946571       29.4020895041
  C         8.1415472348        1.6275895893       19.4903346291
  C        10.4621715559        1.3612545780       20.4566555273
  C         9.9016702719        4.1730849845       18.5122963868
  C         9.8245175146        5.5161315957       18.4361846253
  H         1.9001724378        3.9911716092       25.8824174380
  H         3.3165312162        3.9716825369       26.7826722888
  C         1.5367769780        4.4919291841       27.9146213008
  S         6.1870071435       -2.7265270900       28.6535757504
  N         5.8929942576       -2.1671178934       30.1415095440
  C         5.3067078607        0.0757817799       31.1436632380
  H         4.7198009628        2.1581528452       31.6231267670
  H         7.7639095646        0.7060306425       19.9114359563
  H         8.5887813241        1.3057668353       18.5642523304
  C         6.9190362030        2.4823337780       19.1414185908
  H        10.8026016771        1.0928923149       19.4619628343
  H        10.2084067249        0.4525245250       20.9888125240
  C        11.7780591649        1.9664221890       21.0567318976
  H        10.1210865574        3.4548012465       17.7836924037
  C         9.9914065088        6.2944779836       17.1288371290
  H         1.5924560834        3.5233747068       28.4374927530
  H         0.4991321433        4.9243767505       27.7759333317
  C         2.2701531240        5.3755746202       28.9335617443
  C         4.9267125364       -0.6083231317       32.3814293424
  H         7.0913093142        3.4120402346       18.5752916692
  H         6.5390111442        2.8474611620       20.0553578068
  C         5.8051137637        1.6305595979       18.4885865027
  H        11.4858349689        2.2306283771       22.0754772674
  H        12.0403644588        2.8536906625       20.4944863773
  C        12.8929309199        0.9363985901       21.2297701844
  C        10.0067103546        7.7231387974       17.0820273694
  C        10.2285883879        5.5754103057       15.8468881479
  H         3.3134551736        5.3494305984       28.8442596765
  H         1.8785347196        6.4099702605       28.7272818225
  C         1.9403298611        4.8698053485       30.3595797393
  H         5.1822597890       -1.6392131203       32.3089472637
  C         4.7135755568       -0.1870781930       33.6774501446
  H         5.5424738743        0.7653102758       19.1651420895
  H         6.1157519798        1.2040352256       17.5535203052
  C         4.4729737206        2.3889042047       18.2563786303
  H        12.8192423052        0.6024555538       22.2763234265
  H        12.7500625099        0.1081077178       20.6016902406
  C        14.2765970314        1.5302318495       20.8507320126
  N         9.8655461595        8.6463315808       18.1921381808
  C        10.2797028575        8.3703562048       15.8725911087
  C        10.4548904249        6.2807049812       14.6473496007
  H        10.1121725831        4.4826411812       15.8121351610
  H         1.9814964147        5.7667552614       31.0551417751
  H         0.8625099305        4.5525720468       30.3684130445
  H         2.5878296466        4.1202586639       30.7648018208
  S         4.5228559211        1.4137341606       34.1899756413
  C         4.7080436575       -1.2273444573       34.7368922179
  H         4.3314823420        3.1860243469       18.9729902691
  H         4.5556977756        2.8677151462       17.2547734310
  C         3.2586334918        1.4905735680       18.2884727872
  H        14.2067169794        1.9397913561       19.8516094948
  H        14.9217710979        0.6581738902       20.7698373641
  C        14.8779719997        2.5513092676       21.7887033876
  S        10.0425843680       10.1551986072       17.7301447766
  N        10.3809788626        9.7809481739       16.1417761097
  C        10.5756516829        7.7506312446       14.6429564808
  H        10.7194081909        5.7788184811       13.7435607413
  C         4.3257285583        0.7340818690       35.8033628665
  N         4.4894795106       -0.6302088833       35.9130919880
  O         4.6472404693       -2.4568815623       34.5037025266
  H         2.4033442799        1.9607949164       17.9354249832
  H         3.0792540977        1.1545980206       19.3532071349
  C         3.3723313447        0.2838141848       17.3379656608
  H        15.7922797451        2.9199697662       21.3714527431
  H        14.1162580901        3.3123146270       21.9314087897
  C        15.1521620400        1.7924080828       23.0466315857
  C        10.9129391904        8.6464098070       13.5394627342
  S         3.8867517771        1.6110042165       37.2921147021
  C         4.4278135923       -1.3643144981       37.1674898778
  H         3.4877878758        0.6374086349       16.3569362119
  H         4.1967630963       -0.3539410414       17.5967217143
  C         2.0886515413       -0.5714092412       17.2222801090
  H        15.2031510793        0.7359360563       22.8823246857
  H        14.3606622616        1.8953354497       23.8347753312
  C        16.4430492132        2.1698898661       23.7948138186
  H        10.9313163505        9.6882655776       13.8321927037
  C        11.3136701736        8.3103253530       12.2361005536
  H         3.7559978522       -0.8998042229       37.8099115010
  H         3.9539139351       -2.3600318742       37.0082246878
  C         5.7625086989       -1.4343019974       37.7988733712
  H         1.9035279974       -0.9645546768       16.2033854697
  H         1.1981239820       -0.0823073335       17.6110939765
  C         2.3084648604       -1.9835916937       17.9470482288
  H        16.4672236956        3.2256841546       24.0451735553
  H        16.4250859512        1.7229982328       24.8317455377
  C        17.7589633722        1.8662496169       23.0018745323
  S        11.6477624653        6.7541628035       11.5804404005
  C        11.5206314862        9.4277688412       11.3446779466
  H         5.6255104104       -1.8982914859       38.7863972946
  H         6.4201351402       -1.9987856348       37.2046741389
  H         6.2895061109       -0.5032213036       38.0365967937
  H         3.0557396935       -2.5895854178       17.4379934027
  H         1.3709102965       -2.5452010044       17.7624719433
  H         2.3676207430       -1.8882169930       18.9842829018
  H        18.6695724578        1.8872333134       23.7038879362
  H        17.9018607052        2.4933665975       22.0812237285
  H        17.6977011128        0.8358650985       22.5812223284
  C        11.9407070360        7.5587212227       10.0810592198
  N        11.9422263551        8.9529320317       10.1463079539
  O        11.1655016362       10.5654948422       11.6130579946
  S        12.6688037658        6.8032830293        8.6312908636
  C        12.0203050524        9.8811702579        9.0484180756
  H        12.3206115184       10.8915824557        9.3000390790
  H        12.7560961853        9.5591615043        8.2993546523
  C        10.5549816087        9.9750478449        8.4321435410
  H        10.0392692619       10.9524110970        8.6125938130
  H        10.7147497820        9.7935883694        7.3954124295
  H         9.8715048368        9.1361652645        8.6806381677
  H        20.5861961555        9.9989380944        3.7222744641
  C        21.4994198392        9.4561837889        3.7614233731
  H        21.3603872622        8.3408433853        3.9103543617
  C        22.4855866070        9.9281022474        4.8018749800
  C        22.0661883092        9.6403275790        2.3543772133
  C        21.7174667360       10.1555274629        6.0667217888
  H        23.3043190271        9.2577094455        5.0565202105
  H        22.9782338167       10.8453042649        4.4826083291
  H        21.3376218859        9.9330815044        1.5736665324
  H        22.5245914898        8.6902132925        2.0767310870
  H        22.8228905392       10.2914116260        2.2946024431
  C        21.1260607558        8.9395357663        6.6759497353
  H        22.4618372264       10.4148574951        6.7453716960
  H        20.9888185384       10.9561087733        5.8928674790
  C        20.1642953300        9.0887792850        7.8394196869
  H        21.9245294157        8.1112716246        6.8831683534
  H        20.4999511647        8.5086497184        5.9529386937
  C        18.8303155527        9.9728898127        7.7443086282
  H        20.7657587104        9.4899083644        8.6605677024
  H        19.8295244338        8.1160423196        8.2527294154
  C        17.6699795781        9.4207999102        6.9208416855
  H        18.4989654492        9.8458132039        8.7996300620
  H        19.1019575375       10.9725752449        7.4999382309
  C        16.4600502905       10.4449199939        6.7578359574
  H        17.2613261706        8.5628716850        7.4213202803
  H        17.9893556293        9.0359761479        5.9137397851
  C        16.9481824685       11.7810557668        6.1475253862
  C        16.0549982383       11.2734228918        7.9956615570
  C        15.2872576774        9.8187033639        5.9243690819
  C        16.6343928175       12.9489006535        6.8877359803
  C        17.5686579218       12.0364956801        4.8946585072
  C        16.1146550743       12.6126649908        8.0854004931
  C        15.6437529345       10.5959158046        9.1491531921
  H        15.7693366024        9.2192847946        5.1299949772
  H        14.6862630301        9.2024684085        6.7096035738
  C        14.2773067182       10.8918813670        5.3338708110
  S        17.1690196451       14.3403532686        6.0883528213
  C        17.6471952961       13.4306188818        4.6567718579
  H        17.9319668667       11.1068001241        4.3690159800
  C        15.6967079681       13.2084626097        9.2548586181
  H        15.4863426518        9.5751663092        9.2422424370
  C        15.2441146008       11.2387192169       10.2928486663
  H        14.6438364267       11.3639802634        4.4067152745
  H        14.1522883672       11.6837673980        6.0745348814
  C        13.0318616166       10.1151114610        5.0148134008
  C        18.0762265221       14.0521220351        3.4151117908
  C        15.3622217516       12.5593739365       10.3935007165
  H        15.6170293219       14.3066190006        9.2203648801
  C        14.8766059017       10.9076022518       11.5593805763
  H        12.2986880741       10.5711032995        5.7027106458
  H        13.1883366442        9.0115864843        5.2276925342
  C        12.5686664654       10.3614421260        3.6141863544
  C        17.9572091413       15.4275496653        3.1141552482
  C        18.6425616060       13.1777011822        2.3911868468
  C        14.9394143846       13.3435028048       11.6149022188
  C        14.7155466406       12.0054507198       12.3988803051
  S        14.6932981006        9.4553597649       12.3793625809
  H        12.6408634281       11.4415382363        3.3052779918
  H        11.4598108010       10.1266746240        3.6506373509
  C        13.2602006350        9.5329738812        2.5739091907
  N        17.5777113985       16.3804572264        4.0362864712
  C        18.4419086818       15.9755327394        1.9312188940
  C        18.8879833358       13.6974295341        1.1077981914
  H        18.7212837348       12.1034729900        2.4924138955
  C        13.7293854664       14.2814431438       11.4693636223
  C        16.0863134921       14.2692332649       12.1034371130
  C        14.3986463605       11.6423157646       13.7103176617
  C        14.2603292104       10.2809968080       13.8005119675
  H        14.2693870345        9.3232389145        2.8043162011
  H        12.7585785307        8.5507293375        2.6820850069
  C        12.9851952815       10.1298640265        1.2018632449
  S        17.7505434284       17.8988457071        3.3463087066
  N        18.2946039218       17.3763650970        1.9226030351
  C        18.8235534530       15.1508313891        0.8163880960
  H        19.1676665842       13.0701366886        0.2786843107
  H        13.8706212427       14.8560644861       10.5243864475
  H        13.6398710058       14.9963956847       12.2049322080
  C        12.4827576804       13.4741878733       11.5065123146
  H        16.3635234841       14.9884354812       11.3606025702
  H        15.6934208309       14.8043133194       12.9569620813
  C        17.3614872504       13.5089589211       12.5237201080
  H        14.2132142365       12.4596397537       14.3842427723
  C        13.9591077041        9.4767467798       15.0423050995
  H        13.5062179954       11.0722061316        1.2041463474
  H        11.8847409614       10.2913872005        1.1402145099
  C        13.3563175201        9.1757202211        0.0720788931
  C        19.2230563981       15.8646369380       -0.3730644416
  H        12.5879746102       12.6662197094       10.7847184174
  H        12.1715216651       12.8962734246       12.3716659616
  C        11.2488069166       14.3414264530       11.1394511313
  H        17.9544573371       13.1433142721       11.6994203429
  H        17.0939317843       12.6668158526       13.1484434167
  C        18.3696818774       14.3343510034       13.4389369877
  C        13.8888098953        8.0756677543       15.1853086357
  C        13.7516635759       10.2163345930       16.3204490663
  H        14.3326216075        8.6654044616        0.2510649706
  H        12.7015579849        8.3125022311        0.1191372037
  C        13.1764175613        9.8349249180       -1.3021255588
  H        19.2213234263       16.9170334350       -0.3177493706
  C        19.5210996440       15.4526443472       -1.6514197239
  H        11.4403084356       14.9976564054       10.2781021811
  H        11.0126520968       14.8908586655       12.0886138768
  C        10.0703541122       13.4474260513       10.7513213759
  H        18.5480457504       15.3456231094       13.0900716251
  H        18.0068252757       14.4614883278       14.4508887718
  C        19.6730461303       13.7053442824       13.7769789581
  N        14.0636856836        7.1754691405       14.1216461889
  C        13.6713480879        7.4398179155       16.3718703986
  C        13.4640811823        9.5613424645       17.4798113580
  H        13.8879426256       11.2665236859       16.3892576647
  H        12.4052517691        9.3264973444       -1.8656361687
  H        14.0823512633        9.7391719004       -1.8492665947
  H        12.9345309722       10.9262951400       -1.2612521835
  S        19.7135669664       13.8688926304       -2.1496648393
  C        19.5460736791       16.4376166062       -2.7146608347
  H        10.4704760748       12.9392363503        9.8536375048
  H         9.9143167792       12.7210745831       11.5136078170
  C         8.7828415632       14.1934123216       10.3167907977
  H        19.7276956975       12.7429077339       13.2754784859
  H        19.4848786142       13.3935363680       14.8326739894
  C        20.9553383984       14.4396105604       13.5536322313
  S        13.9155830265        5.6486159524       14.7061895151
  N        13.6804653254        6.0362506553       16.2289319465
  C        13.4222797295        8.0646896075       17.6257803621
  H        13.3462070856       10.2243148254       18.3302398983
  C        19.8762812289       14.5428614166       -3.8344859999
  N        19.8237908862       15.8930414874       -3.9487688679
  O        19.3429254495       17.6402520934       -2.5958283509
  H         8.1554554553       14.3116854660       11.2348349282
  H         9.1023819089       15.1161491536        9.8998361855
  C         8.0707561552       13.4589833380        9.1579612457
  H        21.8910941257       13.8044852018       13.7334064622
  H        21.0391690513       14.8656103302       12.6070354018
  C        21.0220947128       15.6074217675       14.5747765115
  C        13.1087958064        7.3209479707       18.8152111573
  S        20.3937386533       13.6345381829       -5.2345493875
  C        19.8729743639       16.6112422899       -5.2338665984
  H         8.6843913034       13.6096548739        8.2927299348
  H         7.8237022407       12.3362201930        9.2830350161
  C         6.6111064550       13.9940030399        8.8998954007
  H        21.0003025404       15.2035675516       15.6366307992
  H        20.2253290206       16.2811097475       14.4550555892
  C        22.3210499242       16.4566630275       14.3946456746
  H        13.1847919847        6.2935046029       18.6413082426
  C        12.6912100863        7.6320453531       20.0942060944
  H        20.6825684926       16.2711464175       -5.9065339468
  H        20.1327587210       17.6152184654       -5.0455588754
  C        18.3497627744       16.5706362822       -5.7713546614
  H         6.0625745836       13.2891525413        8.2358314646
  H         6.6417402946       14.8633781311        8.3636168065
  C         5.7816246772       14.1164066518       10.1612575817
  H        22.9006374384       16.1757575713       15.2723329028
  H        22.7988941833       16.0356549164       13.5134506632
  C        22.0844504214       18.0015911304       14.2068844313
  S        12.1350466162        9.1649414204       20.6508244267
  C        12.5606600373        6.4866048809       21.0443152859
  H        18.2373686095       17.1391961945       -6.6555441821
  H        17.6782804717       17.0424303539       -5.0274628594
  H        18.0460709797       15.5404378719       -5.9597540327
  H         4.7044313030       14.3450487825       10.0651898257
  H         5.8936171394       13.2403037291       10.8507702248
  H         6.0164959933       14.9899099344       10.7498026867
  H        22.9689473305       18.5383379190       13.7624664084
  H        21.2370894017       18.2541430644       13.5689524637
  H        21.8270442409       18.4644396666       15.1740726690
  C        12.0325804468        8.3245523254       22.2029512292
  N        12.1875455826        6.9543820991       22.1991141074
  O        12.7993642705        5.3195899659       20.7667048524
  S        11.4328603181        9.0687042429       23.6529298341
  C        12.0620385961        6.1178767043       23.3573451016
  H        11.7002964981        5.0865370205       23.2376838419
  H        11.2762175388        6.5398178316       23.9866451436
  C        13.3838714983        5.9601525122       24.1602411333
  H        13.1917883522        5.4505479907       25.0875948824
  H        13.6835058982        6.9553887168       24.3708418003
  H        14.0962502216        5.5499877125       23.4614196939
