352
 i =    24500, time =    24500.000, E =        25.2480714248
  H        11.4310973851        7.2611042657       32.9206430165
  C        11.2201451015        6.2291536673       32.7687819087
  H        12.1799350758        5.7482087917       32.5284175286
  C        10.2899928068        6.1240232863       31.5465244968
  C        10.7802984790        5.4144179656       34.0353122565
  C        11.1318535185        5.9111230127       30.3489948037
  H         9.7039304793        5.1746880034       31.7164323404
  H         9.5913723526        6.9889673152       31.4856775983
  H        11.4945787395        5.5869944659       34.8051819643
  H         9.7229404326        5.5437569230       34.2504076342
  H        10.7823467276        4.3136608000       33.8934384608
  C        10.1525577508        5.5945372856       29.3071227538
  H        11.9360277098        5.1520095263       30.3468636541
  H        11.6495752258        6.8798876961       30.1281352886
  C        10.7815439924        5.4633270534       27.9575485818
  H         9.7661810225        4.5660734214       29.5940529165
  H         9.3283595085        6.2680511007       29.1083611738
  C         9.8050795318        4.8787371078       26.8238346987
  H        11.7849649377        4.8839296350       27.8446952129
  H        11.0946333291        6.4169215359       27.5692993549
  C         8.5455437340        5.6294453464       26.4970374632
  H        10.3019512591        4.7422678520       25.8330723508
  H         9.4748984734        3.9578978945       27.1921260642
  C         7.3863264381        4.8898283803       25.7570041686
  H         8.1121145131        6.0686713933       27.4005436730
  H         8.8210203959        6.5054497634       25.9286199876
  C         7.0678674445        3.5366395010       26.4033479738
  C         7.8834237219        4.1924681664       24.4960607978
  C         6.1295814382        5.8065319404       25.6201068337
  C         7.1050365176        2.4791302800       25.5054961335
  C         6.6104767650        3.1293132792       27.6596976794
  C         7.6569440815        2.8933450927       24.3240276551
  C         8.4037850182        4.8973409604       23.3956760022
  H         6.3401444071        6.6701184642       25.0108171799
  H         5.7522834264        6.1065390739       26.5561053918
  C         4.9042304852        5.1168538300       25.0045061966
  S         6.4103735769        0.9937864562       26.1757696749
  C         6.2402761521        1.8079921483       27.7142477568
  H         6.4683109630        3.7710611479       28.4486871113
  C         7.9780694761        2.3274779693       23.1145288738
  H         8.6165792493        5.9699890842       23.4930056583
  C         8.7143518116        4.3210170626       22.1805198951
  H         5.1220892552        4.9380443060       23.9538976884
  H         4.6153349006        4.1618586035       25.4397617609
  C         3.7140841893        6.0616228112       24.9776674507
  C         5.7182390574        1.1557944471       28.9630006819
  C         8.6290285909        2.9916738025       22.0452208417
  H         7.7133623294        1.3024329406       22.9574383951
  C         9.0889770512        4.7667842600       20.9216380221
  H         2.9291873110        5.6872457337       24.3630512010
  H         4.0454383362        7.0267561366       24.6022041578
  C         2.9543758870        6.1483175694       26.3399488449
  C         5.6886889482       -0.2147220960       29.1718928298
  C         5.2392561431        1.9744059867       30.0591134874
  C         9.0113332893        2.3926507921       20.7629382583
  C         9.2238471586        3.7214541670       20.0547591960
  S         9.2613790703        6.3554872745       20.2439897278
  H         2.3054158658        7.0039233042       26.3422349022
  H         3.6487862334        6.3170499058       27.2335029674
  C         2.1639678041        4.8663530894       26.7517661585
  N         6.0791465071       -1.2297938975       28.2393491859
  C         5.4133607841       -0.8057998783       30.4328867286
  C         5.0618126195        1.4156703661       31.3256761541
  H         5.1681420698        2.9998252087       29.8601854893
  C         7.9217982268        1.6080680025       20.0293887083
  C        10.3373335573        1.6128444312       20.7694628749
  C         9.6025580099        4.1631329531       18.8154649814
  C         9.6396147542        5.5225151659       18.7428780569
  H         1.3685906525        4.6447914573       25.9894358707
  H         2.8185237475        4.0296764465       26.8178974231
  C         1.4512627348        4.9420918563       28.1333873707
  S         6.0313698805       -2.6868456476       28.9796718700
  N         5.5554651736       -2.1924575710       30.4404479243
  C         5.1324580802       -0.0406463884       31.5771295474
  H         4.8205867714        2.1026183179       32.1420334724
  H         7.4627144149        0.8824067496       20.6348010515
  H         8.3655931737        1.1393268268       19.2051334085
  C         6.7771531234        2.3962668901       19.3647045019
  H        10.3903141944        0.9446585762       19.8993498219
  H        10.3151512252        0.9003688440       21.6196735057
  C        11.5898802538        2.4415246115       20.8522498162
  H         9.8835859013        3.4409680836       18.0936322863
  C         9.9172902385        6.2168903350       17.4993502052
  H         0.7197585195        4.1087547993       28.0932858519
  H         0.7471982092        5.7815721870       28.3858935922
  C         2.3568297908        4.7157557039       29.4701958129
  C         4.8093356565       -0.7083385674       32.8123719703
  H         7.1402688742        3.0593675874       18.6046137690
  H         6.4033253184        3.1353689124       20.0442975885
  C         5.6550168762        1.4174523758       18.8045199058
  H        11.4278472856        3.0887299173       21.7073760668
  H        11.7313643546        3.0694251322       19.9527344613
  C        12.8173934237        1.5672562432       21.0516184081
  C        10.0469250306        7.6119747838       17.3377520918
  C        10.1784420976        5.4664867446       16.2590736399
  H         2.8975288184        3.8083001950       29.3497313183
  H         3.1137574985        5.4970845182       29.3397084325
  C         1.6696248232        5.0780249123       30.8242214307
  H         4.7564780792       -1.8032065615       32.7708099558
  C         4.5508768873       -0.2052747219       34.0739179700
  H         5.3301111350        0.5926677528       19.5673204460
  H         6.1088679085        0.9089001035       17.9231490761
  C         4.3803479507        2.2211816647       18.3323788172
  H        12.8722488561        0.9952700707       21.9239322512
  H        12.8368468451        0.8268978796       20.2532916162
  C        14.1361029280        2.3210847567       20.9776164215
  N         9.8974683657        8.5339436616       18.3538773364
  C        10.3074279293        8.1672693527       16.1286459631
  C        10.5073070566        6.0137913966       15.0598140673
  H        10.0576373044        4.4052584935       16.2306992711
  H         1.8108179901        6.1829571683       31.1088570847
  H         0.6144129275        4.8686782017       30.6714623012
  H         1.8261025186        4.4290130284       31.6675314601
  S         4.3844404878        1.4292173014       34.5494074281
  C         4.4304528366       -1.2091757854       35.1964696787
  H         4.3017513262        3.1662211057       18.9168429279
  H         4.6273611858        2.5029027302       17.3015887676
  C         3.0668772391        1.4345283274       18.4721468438
  H        13.9489239966        3.2179994395       20.3578393552
  H        14.9574120487        1.7858160491       20.5516501826
  C        14.6860652191        2.7130779605       22.3509209446
  S        10.1593267264       10.0070760487       17.7269623073
  N        10.4622469919        9.5350145827       16.1756441672
  C        10.5513550167        7.5073473202       14.9562647181
  H        10.7152126965        5.4361926921       14.1613708471
  C         4.0123104110        0.8236259647       36.1397041344
  N         4.1322037550       -0.5213134042       36.3449704458
  O         4.7518093647       -2.4371876616       35.1802495017
  H         2.3902579769        1.9791597974       17.8730932363
  H         2.6984123010        1.4542675486       19.4896196473
  C         3.1127404766       -0.0715327655       18.1420268147
  H        15.4436148679        3.4609398611       22.1822324855
  H        13.9040489575        3.2294111261       22.8929510698
  C        15.1631123373        1.5054468689       23.0726799438
  C        11.0515689855        8.2561320488       13.8421119559
  S         3.7881677625        1.9219587093       37.5136018599
  C         4.0192939526       -1.1481222288       37.6435801697
  H         3.5947229379       -0.3170457555       17.2170784190
  H         3.6302502748       -0.6045635015       18.9406782537
  C         1.7267199863       -0.7418562968       17.9742414112
  H        15.3240627531        0.6993347635       22.3314783788
  H        14.3477879947        1.2056645426       23.7170793036
  C        16.4698955333        1.7121538297       23.8564927109
  H        10.7820455524        9.3044064083       13.8312693733
  C        11.5021357068        7.8770640131       12.5731423488
  H         3.2589264044       -0.5910397618       38.2858434817
  H         3.7384531157       -2.1944137102       37.5625260942
  C         5.4090694799       -1.0469836694       38.3036250445
  H         1.0753899510       -0.3255007254       17.2492472695
  H         1.1613769149       -0.4662720904       18.9014712793
  C         1.8095211211       -2.3073511809       17.8893528322
  H        16.3910822921        2.6344915150       24.4412127786
  H        16.6571467958        0.9266855111       24.6124483738
  C        17.8272257118        1.8291229047       23.0005586901
  S        11.9372813944        6.2944548094       11.9585367116
  C        11.5355415659        8.8967688482       11.4939211003
  H         5.4930633619       -2.0381211447       38.7240497575
  H         6.2572481131       -1.0543702173       37.6165570092
  H         5.5369932739       -0.2280469221       38.9592353251
  H         1.9962855788       -2.6379418204       16.9232703564
  H         0.9607873216       -2.6707514140       18.4050152050
  H         2.6940237483       -2.6284418391       18.5252574319
  H        18.6420082055        1.4190594818       23.6604473112
  H        18.1260410183        2.8317374174       22.6058670831
  H        17.5642665236        1.1686719184       22.1233516226
  C        12.1897195181        7.0355178453       10.3713767136
  N        11.9558038174        8.3873352255       10.3504571007
  O        11.1851053379       10.0832433339       11.6453032112
  S        12.8888128954        6.2707520568        8.9892426125
  C        12.2080810798        9.1784163895        9.0768930924
  H        12.2991556570       10.1881292005        9.4179800115
  H        13.1608330267        8.9172095862        8.6248475685
  C        10.9825307413        9.0553656860        8.0654773810
  H        11.1682359823        8.2056637352        7.3919282015
  H        10.0230911368        8.8247502925        8.5024561015
  H        10.8693391948        9.9144999940        7.3990202797
  H        21.0904388556       10.8490657510        3.1556595342
  C        21.7725960939       10.0165221132        3.0311304204
  H        21.2139496404        9.0874854980        3.0517112023
  C        22.7339225641       10.0174674372        4.2291403052
  C        22.4293659700       10.1624981195        1.6328577018
  C        21.9778390117       10.4208185528        5.4933785599
  H        23.3287475763        9.1557811926        4.4440293696
  H        23.3691413364       10.8641748290        4.0763297412
  H        21.5441303995       10.2539538209        0.9425342615
  H        23.0358774484        9.3206588631        1.3093818388
  H        22.9920317901       11.0272968177        1.4999880381
  C        20.9764410772        9.3406526530        6.0257053042
  H        22.7620870124       10.4531353626        6.2427547731
  H        21.4948232789       11.4018000559        5.3925900675
  C        20.5746473409        9.4736961680        7.4337473201
  H        21.5024384923        8.4124637297        5.9722733414
  H        20.1115436623        9.2781291683        5.3270644084
  C        19.3730959910       10.3894483941        7.4300577275
  H        21.2858854478       10.0283793847        8.0571869171
  H        20.2996739524        8.5595829606        7.9323308599
  C        18.0825361412        9.6318413502        7.0589236802
  H        19.2579543788       10.8001676963        8.4446569813
  H        19.5534836706       11.1563566855        6.7512711929
  C        16.8590500519       10.5465702935        7.0720139773
  H        17.9563992690        8.7763098753        7.8300868491
  H        18.1019856053        9.0741196809        6.1393465752
  C        17.1013575047       11.8793913633        6.2677595895
  C        16.4745176656       11.2821302313        8.2569000626
  C        15.6692216639        9.7379546209        6.4116038706
  C        16.8676855607       12.9647300282        7.0669321270
  C        17.4682990371       12.3198783886        4.9366111059
  C        16.4437586685       12.6091841666        8.3170340684
  C        16.1553980117       10.6394293454        9.4216615766
  H        16.0539796633        9.4764677972        5.3539800925
  H        15.5497672093        8.8778413632        7.0715075510
  C        14.3856981014       10.5268848757        6.4451206533
  S        17.3419151417       14.4757379009        6.3172801575
  C        17.7019556952       13.6656241837        4.8859117176
  H        17.6422991420       11.5842988957        4.1574158940
  C        16.0376190758       13.2314855269        9.4651018894
  H        16.2621372143        9.5688290194        9.5382425529
  C        15.6647094325       11.2370674761       10.5837167058
  H        14.5791792589       11.5755849380        6.2263280698
  H        14.0862701983       10.5437498477        7.5008828555
  C        13.2785690090       10.1557972554        5.5388776886
  C        18.1337008230       14.3833327906        3.6790944657
  C        15.7398471764       12.5716228140       10.6554311060
  H        15.8973905373       14.2609524777        9.3969283786
  C        15.2194755911       10.9119425702       11.7993366578
  H        12.3699632838       10.5634651265        5.9636016387
  H        13.1225165006        9.0490690395        5.6117206206
  C        13.4051931259       10.5597887342        4.0419145007
  C        18.1068283558       15.7799373478        3.4387854710
  C        18.4506292315       13.5473120455        2.4764426041
  C        15.3527037185       13.3012329493       11.8960030065
  C        15.0661842148       11.9946438433       12.6399500386
  S        14.8900770983        9.4054512055       12.5535202715
  H        14.2817407920        9.9913372498        3.6931981954
  H        13.6317730386       11.6393769829        4.0212843893
  C        12.1401630745       10.2261388888        3.2603734787
  N        17.8960058278       16.7003453887        4.3995473250
  C        18.4209752908       16.3462834310        2.2322334577
  C        18.6276051554       14.1055235219        1.1859315568
  H        18.5813420949       12.5036577720        2.5472701678
  C        14.0660553954       14.1975435061       11.7603876613
  C        16.5139298153       14.0077221424       12.6184446250
  C        14.6668847755       11.6138460985       13.9603878797
  C        14.5706828927       10.2859465635       14.0880305678
  H        11.6562336367        9.3212014348        3.6808240061
  H        11.4893325200       11.1606670361        3.3141373396
  C        12.2540466736        9.8881296987        1.7828420660
  S        17.7534127480       18.1369509715        3.7374288371
  N        18.2094088173       17.7082031553        2.1685568399
  C        18.7940569083       15.5674582544        1.0973545061
  H        18.8254723049       13.4265567277        0.3541550366
  H        14.2325359724       15.0850652893       11.0665486288
  H        13.8380747793       14.5278207168       12.8019848733
  C        12.7889943247       13.3838396565       11.3622720641
  H        16.9208022816       14.8715726532       12.0934718940
  H        16.1179888927       14.5215278328       13.4713939202
  C        17.5880011667       13.1290080086       13.2664336956
  H        14.4155217505       12.3833824248       14.6456320173
  C        14.1160054413        9.5662586724       15.3143229087
  H        12.6825068674       10.7383701705        1.3252180249
  H        11.2723010605        9.7124459360        1.3542628940
  C        13.1778966390        8.7390324805        1.3828029607
  C        19.0231157521       16.2458421949       -0.1618051240
  H        13.0459294640       12.5727090931       10.7230569803
  H        12.4792764142       12.9630505057       12.3113648357
  C        11.5528754129       14.2304418156       10.9539196993
  H        17.9780879896       12.4103358867       12.5846098934
  H        17.2859061392       12.6548245285       14.1849660261
  C        18.7381280255       13.9809707662       13.6821143075
  C        14.0480443080        8.1769944734       15.5018658329
  C        13.7453414085       10.3760972076       16.5148561716
  H        13.8718802585        8.4973224913        2.1827497527
  H        12.5330107993        7.8444230202        1.2468858919
  C        13.9009365227        9.0635915552        0.1050254577
  H        19.1265104821       17.3438626884       -0.1243743961
  C        19.4058652954       15.7424873529       -1.3997220214
  H        11.9551158780       15.0363073101       10.3565703039
  H        11.2126720972       14.7744266899       11.8684983734
  C        10.5206918486       13.4527930603       10.1353248086
  H        19.4195878069       13.9222229358       12.8674094161
  H        18.5778069591       15.0418218501       13.8743246053
  C        19.5007413201       13.3924572455       14.8806438568
  N        14.2785162196        7.2249892627       14.5294575463
  C        13.6902106502        7.5684419012       16.6659990610
  C        13.4448232933        9.7491511145       17.7021082994
  H        13.6916421189       11.4558497276       16.5286181743
  H        14.5253097093       10.0018718273        0.1986067849
  H        13.1350222163        9.1298922398       -0.6342802099
  H        14.6086239511        8.2652335770       -0.1122675290
  S        19.4749941817       14.0973486969       -1.8738624810
  C        19.4664773549       16.7548935372       -2.5051830336
  H        10.9096816848       13.4359926000        9.1091721007
  H        10.5440655690       12.4444933208       10.5177503664
  C         9.1278585847       13.9622840057       10.2537429897
  H        19.5047502339       12.2925256848       14.9647521715
  H        19.1027813641       13.7273988160       15.7987528511
  C        20.9961220865       13.7790791129       14.8450405249
  S        14.1181333779        5.7177668736       15.1257229281
  N        13.9162044760        6.1607826851       16.6211517108
  C        13.4455911236        8.2547664595       17.8675057539
  H        13.2361757935       10.3771016536       18.5698043711
  C        19.5493980646       14.7332831139       -3.4937176526
  N        19.6983225508       16.0543264425       -3.6981077267
  O        19.2454224822       17.9573293563       -2.3620702575
  H         8.8016135827       13.6688959731       11.2787338121
  H         9.0028308286       15.0645225281       10.1044312967
  C         8.1325073590       13.2444921826        9.3348308783
  H        21.6206065910       13.1390270651       15.4038497235
  H        21.3535026536       13.3909189655       13.8484677655
  C        21.3407305226       15.2175450734       15.1993603495
  C        13.0893197782        7.5630201378       19.0612669352
  S        19.8347124817       13.6370273914       -4.7425646597
  C        19.6637823022       16.5923121407       -5.0196562420
  H         8.5280632239       13.1612406264        8.3724529635
  H         8.0647818566       12.1627628411        9.6705371701
  C         6.7153248178       13.8177692077        9.3525362313
  H        22.2747383631       15.1587102576       15.7371329137
  H        20.6395123683       15.6716124896       15.9734907967
  C        21.4270941330       16.1745277937       14.0366152673
  H        13.2749148701        6.4761369186       18.9380713336
  C        12.5152598540        7.8680619315       20.2656301438
  H        20.2588648135       16.0895516936       -5.7526878574
  H        20.2688016758       17.5093804740       -5.0968134850
  C        18.2844683680       16.9417013367       -5.4800781340
  H         6.1850917793       13.7607064103        8.3986409419
  H         6.8687847237       14.8536155392        9.5861184345
  C         5.8242411707       13.2304732865       10.4366360286
  H        21.6128533124       15.6165096636       13.1232787252
  H        20.4888821658       16.6518641478       13.6791142496
  C        22.4617672192       17.2827319144       14.2515974376
  S        12.1377852412        9.4562120245       20.6412390839
  C        12.2827562280        6.7896390864       21.2622249705
  H        18.3560549168       17.3493624022       -6.4804418533
  H        17.8457910599       17.7934901800       -4.9352538144
  H        17.6487343662       16.0310194207       -5.5382659763
  H         4.8331364393       13.5322912241       10.3326412755
  H         5.8881342744       12.1415291449       10.4567881860
  H         6.1640003298       13.4404815315       11.4728249088
  H        22.0955359605       17.9776824543       15.0310082824
  H        23.4186658852       16.9726959636       14.5892987345
  H        22.6793204187       17.8663059352       13.3474591875
  C        11.6601513286        8.7160621418       22.1999568631
  N        11.7729198198        7.3587997001       22.3097882419
  O        12.6877257762        5.5936566907       21.1269434256
  S        11.1092172430        9.6583541822       23.6630938647
  C        11.6004645316        6.5986479706       23.5806513175
  H        11.2243229133        5.5335900489       23.3990788560
  H        10.8824239685        7.1102294970       24.1952504478
  C        12.8960967104        6.6729825182       24.4351852549
  H        13.5108010955        5.8248931392       24.2003457090
  H        12.7513582095        6.8877824711       25.4949064567
  H        13.4960023815        7.5136595057       24.1397309265
