352
 i =    61600, time =    61600.000, E =        25.2795250720
  H         9.4673789067        5.9919356502       31.6051954171
  C        10.1229680468        6.7250498291       32.0419478907
  H         9.5267403613        7.2757653874       32.8125401575
  C        10.7344939774        7.4611057302       30.7790522954
  C        11.1037055706        5.8674049398       32.7643835601
  C        11.2440012758        6.5285868628       29.7257811783
  H         9.9640789843        8.0686629616       30.3475041639
  H        11.6289942227        8.0324903882       31.1041664785
  H        10.7463552497        4.9502657690       33.2083924321
  H        11.9716729793        5.6180608208       32.1351720591
  H        11.5085946212        6.5021544436       33.5878518173
  C        10.1015549076        5.9223695363       28.8971567176
  H        11.8337829515        5.6286590592       30.0234328926
  H        11.9770011556        7.0870736982       29.1554938877
  C        10.4739690280        5.9929335751       27.3708553904
  H         9.9706216317        4.8533298475       29.2268719526
  H         9.1123301802        6.3615836936       29.1192491653
  C         9.4995548789        5.2893537763       26.3962913121
  H        11.4412137959        5.5271807675       27.2325413191
  H        10.3961512093        7.0576687666       27.2565748168
  C         8.2861551148        6.1247777399       26.0193481458
  H        10.1061272305        5.0731555887       25.5072622086
  H         9.2067888377        4.3366233324       26.8245927816
  C         7.2308643784        5.2701374890       25.2356139944
  H         7.8042812682        6.7315078250       26.8218166692
  H         8.6445503550        6.8368407255       25.3232208039
  C         6.8290884356        3.9874586303       25.9715327660
  C         7.7463702203        4.5418070453       24.1034359387
  C         6.0400677774        6.0981118677       24.7070205698
  C         7.1838328405        2.8287349648       25.2658365651
  C         6.1747888628        3.5672748320       27.1698758724
  C         7.7866712765        3.1774245237       24.1044761098
  C         8.2518264566        5.1222199568       22.9646708271
  H         5.6522543022        5.5654902054       23.7876018045
  H         6.5345007490        6.9827804542       24.3032162500
  C         4.8991450468        6.4103354125       25.7092411515
  S         6.7600450427        1.3708545116       25.9719442516
  C         6.0258281441        2.1544534006       27.2477887370
  H         5.8721887521        4.3197184164       27.8735443909
  C         8.1056266699        2.4783121446       22.9481329408
  H         8.2867808845        6.1810194623       22.9603602679
  C         8.6344234206        4.4672078163       21.8259540649
  H         4.7752296843        5.8724773637       26.6353610997
  H         5.1654437800        7.3964352759       26.0332361221
  C         3.5333091872        6.5353321664       24.9281837606
  C         5.5540326791        1.3792255040       28.4480566027
  C         8.5655765212        3.1338056601       21.7672243312
  H         8.0057674830        1.4139310557       22.9552582199
  C         9.0098190225        4.8695374339       20.5631264245
  H         3.4037211046        5.5992932396       24.4920448051
  H         3.4282166146        7.2522789431       24.1119126774
  C         2.3706950693        6.8521262163       25.8809483435
  C         5.5522068690       -0.0147292648       28.6422627208
  C         5.1696824750        2.2468697887       29.6088433194
  C         8.9927012985        2.4132766095       20.4744538732
  C         9.1596563702        3.7724031522       19.7521118175
  S         9.2664117503        6.3158018833       19.7823316330
  H         1.5828892571        7.4339057290       25.3678144637
  H         2.6519482591        7.4387234490       26.6852569732
  C         1.7585532549        5.5304497125       26.2366251343
  N         6.0275031774       -0.9532487664       27.7247627081
  C         5.3597293245       -0.5896126587       29.9005952708
  C         4.8610605158        1.6211100668       30.8407571404
  H         5.1886586971        3.3181455679       29.5326450135
  C         7.8248490951        1.5315655126       19.7978515611
  C        10.3003515130        1.6389537297       20.6271969894
  C         9.5820083342        4.0903103278       18.5110688845
  C         9.6333855225        5.4540319557       18.3052662371
  H         1.0989452464        5.1660736370       25.4625864406
  H         2.4192691390        4.6712579388       26.3747338523
  C         0.9311315787        5.7399556289       27.4327502140
  S         5.8120102005       -2.4759340233       28.3214622218
  N         5.4962962666       -2.0387244461       29.8687377372
  C         4.9813972226        0.1490931316       31.0939818728
  H         4.5920900792        2.3213026472       31.6934183737
  H         7.3581393481        0.7357250443       20.4505194396
  H         8.2592655367        0.9551456901       18.9704486197
  C         6.8097445303        2.3975553422       19.0943977315
  H        10.6255591714        1.0698574532       19.7244133496
  H        10.1545316148        0.9288668708       21.3987799283
  C        11.3938364742        2.5511242734       21.1668685359
  H         9.7261912083        3.3698988604       17.7625263654
  C         9.9543577077        6.2091128360       17.0285106782
  H         0.3104121409        4.8292854388       27.6794104393
  H         0.2207284931        6.5733885878       27.3665741499
  C         1.7415973611        6.1106042447       28.7613079985
  C         4.6775369960       -0.4961256905       32.3130247803
  H         7.1395806483        2.9072941072       18.1773602778
  H         6.5095836237        3.2652559603       19.7176027916
  C         5.3680720922        1.7881757002       18.9867443966
  H        11.1930400100        3.0659275441       22.0739603651
  H        11.6332205544        3.3893533038       20.5252924957
  C        12.7556114664        1.8138208925       21.2898966263
  C        10.1060694233        7.6169689991       16.9069699825
  C        10.1842735302        5.4453650613       15.7557905004
  H         2.4876336829        5.3330675222       28.9349223665
  H         2.1803746696        7.0879952816       28.6431131934
  C         1.0808616205        6.1881556847       30.1222556163
  H         4.7768218196       -1.6059351877       32.2252315136
  C         4.4224593320        0.0179651784       33.5649409083
  H         4.8220134550        1.7103714040       19.9155000321
  H         5.6837300940        0.6729507733       18.7345680207
  C         4.5041872003        2.3993649165       17.8719418746
  H        12.7302793588        0.9840243640       21.9731999973
  H        12.9818449243        1.4421644512       20.2484295032
  C        14.0385845485        2.6108731057       21.5426616336
  N         9.8163848681        8.5771960226       17.9195878910
  C        10.4196030872        8.2881671992       15.7440390147
  C        10.5972851954        6.1250803654       14.5763830995
  H        10.1229318859        4.3061000326       15.7344411375
  H         0.4990398834        7.0741376994       30.0627710199
  H         0.4322224037        5.3152592125       30.3732007913
  H         1.8628138855        6.2843339125       30.8848692272
  S         4.0261250427        1.6397345324       33.9729008932
  C         4.5592810501       -0.9371098712       34.7090222063
  H         4.3174634173        3.4657327826       18.1039661563
  H         5.0263999846        2.3929981675       16.9488963583
  C         3.2227369832        1.6411118746       17.5497895336
  H        13.7681645195        3.5251655231       22.0473818564
  H        14.5402331531        2.9162159579       20.6744927231
  C        15.0211156549        1.8707486721       22.4873209756
  S        10.0259512774       10.0781748714       17.3554196981
  N        10.3835647410        9.6904852544       15.8634692965
  C        10.7309904705        7.5625373874       14.5316930960
  H        10.8133836658        5.5904669993       13.6394884033
  C         4.1209037078        1.0541058567       35.6579478487
  N         4.3357974601       -0.2695838798       35.8629133086
  O         4.6975897807       -2.1197169252       34.5404736769
  H         2.6240035496        2.2277920646       16.7876211776
  H         2.6629408877        1.7100180395       18.4708670572
  C         3.4900872501        0.2050221196       17.0292999341
  H        14.4579785882        1.2835755042       23.2751845400
  H        15.5276725703        1.1120451304       21.8746413962
  C        15.9714396378        2.9007015593       23.1330750664
  C        11.0878581199        8.3053004244       13.3879197708
  S         3.7976308307        2.0633445548       37.1098209560
  C         4.4603101365       -0.9033961066       37.2257307270
  H         3.8235539963        0.3506258791       15.9626278012
  H         4.2161719129       -0.2587669084       17.7131469083
  C         2.1934301025       -0.6836425790       16.9706384217
  H        15.4384717429        3.5251812193       23.8599256871
  H        16.0039933585        3.6533457747       22.3868100678
  C        17.2967929475        2.2532678076       23.4735994129
  H        10.5531379494        9.2559370064       13.3855258600
  C        11.6724644993        7.9961355459       12.2125931946
  H         3.8021119460       -0.4386919405       37.8965346159
  H         3.9757348411       -1.8537405242       37.0080491955
  C         5.8780256211       -1.0070255517       37.7726242925
  H         2.4919650833       -1.5236627491       16.3322295107
  H         1.3767653039       -0.1524519728       16.5070162706
  C         1.6482517885       -1.2697079365       18.2728917684
  H        17.8748287449        2.9936168145       23.9936052613
  H        17.0989994378        1.4590751699       24.2475960359
  C        17.9962084789        1.8793272877       22.1852878825
  S        12.3270651367        6.4107561790       11.7758036850
  C        11.6819650941        9.0436552286       11.1474749673
  H         6.6147191563       -1.2536763357       37.0579253641
  H         6.1452804387       -0.0400546934       38.3035993389
  H         5.9414746752       -1.7878467952       38.5442648465
  H         0.8077869124       -1.8915789992       18.0703083891
  H         1.3450769734       -0.5042194935       18.9912918222
  H         2.4680110014       -1.8957984570       18.7507187975
  H        17.4614168032        1.0701760122       21.7531694474
  H        18.9856743068        1.6762731831       22.4245783355
  H        17.9655932602        2.6962928668       21.4654583379
  C        12.7187810921        7.2508224425       10.2669455016
  N        12.2726408337        8.5000150497       10.1011612642
  O        11.2794110889       10.1855500349       11.2627124943
  S        13.4173929447        6.3066483209        8.9073695601
  C        12.3467859744        9.2206033865        8.8661246280
  H        12.5395415576       10.3048528477        8.9340963615
  H        13.1765866713        8.7736973604        8.2973241208
  C        11.0340465353        8.9682953039        8.1319618615
  H        11.3241335949        8.6568918333        7.1256168095
  H        10.4826481309        8.1570117268        8.6258106050
  H        10.4543625340        9.9023657120        7.9553308962
  H        22.3164352843        8.5131192655        3.6009580609
  C        22.9190345212        9.3623494062        3.4712069459
  H        23.8256553724        8.9839685997        3.1543417502
  C        23.0969775105       10.1603563219        4.7986586301
  C        22.3816369554       10.2322190128        2.3775523549
  C        21.7616854841       10.2850080269        5.6174678023
  H        23.8066880957        9.6758465302        5.3998713621
  H        23.4627175505       11.1768914500        4.4684179277
  H        21.4444250684       10.7022136341        2.7438861893
  H        22.0605363800        9.8128517568        1.4833626282
  H        23.0555552296       10.9876752047        2.1040112927
  C        21.1420254661        9.0793457856        6.2931442494
  H        22.0114171234       11.0381759224        6.3657279203
  H        21.0533139502       10.7152594112        4.9232623750
  C        20.5492571358        9.4606625594        7.6924976179
  H        21.8430991295        8.2787535916        6.3689410954
  H        20.3802165940        8.6402402088        5.7366835352
  C        19.3634974937       10.4199150467        7.5486018431
  H        21.3060380518        9.8001556599        8.4919067260
  H        20.2190432220        8.5322868666        8.1284114905
  C        18.0575790071        9.8825184709        6.9411383110
  H        19.0788500989       10.8496201907        8.5372097563
  H        19.5940784950       11.3230464879        6.9338485442
  C        16.8369151530       10.7776772193        6.9378479577
  H        17.8394610269        8.9877403866        7.4587060817
  H        18.2377689479        9.5409593186        5.9102620686
  C        17.1317335404       12.1653421249        6.2816717638
  C        16.3857912327       11.4910239885        8.1688650347
  C        15.6063308433       10.0528147843        6.3451643655
  C        16.7953138737       13.2315027129        7.1483587486
  C        17.5886954148       12.5426462129        5.0268279613
  C        16.3171496888       12.8078416433        8.3631583963
  C        15.8644532327       10.7479549435        9.2646294456
  H        15.9737416556        9.6107602460        5.4604452535
  H        15.3432064250        9.1792316908        6.9125727067
  C        14.2902480088       10.8729814922        6.0123361922
  S        16.9763639643       14.7361585159        6.3070919009
  C        17.5585498935       13.9143460387        4.8677956260
  H        17.7749569070       11.6858867216        4.2844730900
  C        15.8736090567       13.3289509466        9.5444101390
  H        15.9127514061        9.6853571460        9.2679368173
  C        15.4512663846       11.2505343250       10.4390140339
  H        14.5165782546       11.7776366135        5.5255083940
  H        13.8244738168       11.1584279648        7.0082600340
  C        13.3632347449       10.1409514062        5.0910683597
  C        18.0512745779       14.6533739440        3.6380970822
  C        15.3855054537       12.5992389814       10.5647865683
  H        16.1325109299       14.3674140768        9.6746713686
  C        15.0427892476       10.8400396355       11.6797382148
  H        12.4192758334       10.6867474139        5.0379572733
  H        13.1489426608        9.1227119829        5.5100605456
  C        13.9502424883       10.0966458751        3.6312958079
  C        18.2574570600       16.0153310185        3.4343126405
  C        18.3871771065       13.7551085393        2.4766903266
  C        15.0960921671       13.2642468417       11.8604563882
  C        14.8272385874       11.9105282667       12.5168428973
  S        14.9954920846        9.3492651614       12.4536482262
  H        14.6964448885        9.2916590524        3.4836975355
  H        14.3935229832       11.0078292104        3.3549436546
  C        12.7068374440        9.9621157550        2.7232562006
  N        18.0844471415       16.9599503246        4.4882939426
  C        18.5701915901       16.6193588525        2.2822073368
  C        18.6828723519       14.2606262699        1.2634351236
  H        18.3664515853       12.7318303530        2.6810938928
  C        13.8252145812       14.1024806994       11.8209324504
  C        16.2760741038       14.1406624227       12.4344683670
  C        14.4691633563       11.5176461208       13.8257068732
  C        14.5229889796       10.1549396511       13.9687699352
  H        12.1242281810        9.1181926361        3.0459923366
  H        12.0204061235       10.8074046406        2.7894604994
  C        12.9857312544        9.5302205298        1.2779650289
  S        18.3779494393       18.4618487100        3.9016985332
  N        18.7091399923       18.0197928724        2.4227912474
  C        18.6971602568       15.7547709767        1.1251358042
  H        18.8125262490       13.6589538810        0.3656277060
  H        14.0648974484       14.9091504681       11.1804034625
  H        13.6162434727       14.5908725715       12.7529600609
  C        12.5408252432       13.3798127311       11.2809762233
  H        16.8135575013       14.5217440084       11.5970402848
  H        15.9470531133       15.0303578919       12.9956087562
  C        17.2574647648       13.2508110243       13.2312489760
  H        14.3331801258       12.2101951712       14.6037849738
  C        14.1331850203        9.4320467116       15.2192174829
  H        12.0813382118        8.7820235704        1.0321170064
  H        13.8939727068        8.8923640256        1.3959380414
  C        13.3399010923       10.5984747689        0.2528632323
  C        18.8863788949       16.4756157665       -0.0908378748
  H        12.6080329570       13.0845165434       10.1927454018
  H        12.2114093715       12.4480225083       11.7325961564
  C        11.4588445469       14.4514442574       11.2582652901
  H        17.8854888634       12.7288860838       12.5448877538
  H        16.8711120919       12.5255841099       13.9517258327
  C        18.3771787407       14.0593116062       13.8904805487
  C        13.9155895935        8.0819628388       15.3488855271
  C        13.9809290478       10.1884508136       16.5163837079
  H        13.5037157704       11.5270468877        0.7649447035
  H        14.2479570056       10.4516025839       -0.2592576238
  C        12.3058389098       10.7066203017       -0.8730174887
  H        18.8395147262       17.5319161467        0.0632765667
  C        19.1969447257       16.1225385519       -1.3782835493
  H        11.7598057126       15.1395758272       10.4389995685
  H        11.3573810713       15.0239724579       12.1452255767
  C        10.1736291860       13.8719056142       10.9478411472
  H        18.5250594421       15.0067518165       13.2955318305
  H        17.9470424751       14.4727952234       14.7947095664
  C        19.6000079863       13.2847372071       14.1621222103
  N        14.2131418187        7.1173289258       14.3140231140
  C        13.4549513587        7.4959103277       16.5134425496
  C        13.6179242485        9.6516316439       17.7390065416
  H        14.2480327450       11.2383107775       16.5124647446
  H        12.5423692430       11.5721011132       -1.4499590724
  H        11.3577593067       10.9746756091       -0.5437653093
  H        12.1417703875        9.8050939804       -1.5106042685
  S        19.5950529929       14.5375179376       -1.9533048490
  C        19.1285417576       17.2013831520       -2.3888813775
  H        10.0423803602       13.0302348666       11.6633036130
  H         9.4284205992       14.5563328940       11.3090922450
  C         9.9638036710       13.5352386717        9.5547780256
  H        19.9732110715       12.9164775891       13.1734606842
  H        19.4582364525       12.4026450827       14.7750275882
  C        20.6737727631       14.2382649901       14.6537026181
  S        13.6901918806        5.6345082368       14.8717443171
  N        13.3540901197        6.0873607608       16.3961013603
  C        13.2746386901        8.2109877832       17.7495446502
  H        13.5006313211       10.1935338287       18.6175121218
  C        19.6252132007       15.3879116305       -3.5117708883
  N        19.5301819727       16.6930132983       -3.5347530662
  O        18.8100009997       18.3303900527       -2.1636863013
  H        10.0671774756       14.4073442176        8.9503501917
  H        10.7744942549       12.9220567527        9.0409581941
  C         8.6673896268       12.8835436606        9.2720953818
  H        20.3594829824       14.8850589877       15.4097055244
  H        21.4916732397       13.6985088472       15.1391920871
  C        21.2372370382       15.0746521034       13.6008184116
  C        12.9264528296        7.4899636738       18.9403969789
  S        20.1765358144       14.7386190516       -4.9802192399
  C        19.3665004170       17.4548498722       -4.7407769082
  H         8.9791315216       12.3185017527        8.3987743917
  H         8.4891354907       12.2545222560       10.1047658421
  C         7.4909036687       13.7619840440        8.9231978779
  H        20.4818559725       15.7053264154       13.1249413657
  H        21.8255543159       14.3944188982       12.9091250574
  C        22.2799827604       16.0045943007       14.1456915213
  H        13.2972218143        6.4839528709       18.9767258159
  C        12.3627690151        7.8277421569       20.1242275354
  H        20.2337039151       17.4003350417       -5.3785288065
  H        19.4674527102       18.4792432934       -4.5007823309
  C        17.9704976728       17.2788971448       -5.4447174874
  H         7.1369517142       13.6528087195        7.8981650363
  H         7.8590589552       14.7382943570        8.9377918157
  C         6.2625008174       13.7314324945        9.8338516892
  H        23.1559757037       15.4540675415       14.5534460099
  H        22.6611859541       16.6179521101       13.3092471412
  C        21.8952512367       16.9784261349       15.2470673407
  S        11.7127458747        9.3767833102       20.6264482992
  C        12.2377597334        6.8106207451       21.2047055805
  H        17.4907281778       18.1851337361       -5.7928595033
  H        17.2008778253       16.8289477255       -4.8172858943
  H        18.0906604152       16.6839228002       -6.3382457925
  H         5.3037510176       13.9416493703        9.3260946552
  H         6.1697104137       12.7772652232       10.3916696207
  H         6.5103081284       14.4755850324       10.5197219738
  H        21.4382934303       16.5074700620       16.1228981316
  H        22.8190897719       17.4258950163       15.5937407224
  H        21.3506167526       17.8660756496       14.8654743757
  C        11.4748848977        8.6434593433       22.2505421831
  N        11.7376086674        7.3407480470       22.3209478697
  O        12.7607680004        5.6473326913       21.0726697062
  S        10.7292636756        9.3971937690       23.7415512113
  C        11.5248994066        6.5089372608       23.5156120024
  H        11.3032799812        5.4963266827       23.1086959992
  H        10.6688765550        6.8003243496       24.0451469486
  C        12.7920810566        6.6105913700       24.4012849904
  H        13.4532472023        5.8338543757       23.9008055455
  H        12.7086125947        6.0854071360       25.3946342494
  H        13.3080688016        7.5651031777       24.3274763162
