352
 i =    40400, time =    40400.000, E =        24.7380506019
  H        11.8149662204        7.1201099381       32.8582205195
  C        11.5647520516        6.1376399015       32.6495750103
  H        12.4252675072        5.6549996558       32.3143185633
  C        10.3013686779        6.0804584977       31.6946473951
  C        11.0865998798        5.6215426898       34.0050131752
  C        10.6006392976        6.5804615840       30.2745125849
  H         9.9232961095        5.0397494680       31.6587767971
  H         9.5008134449        6.5902754563       32.0690111618
  H        10.3442534090        4.8404627362       33.9318069481
  H        11.8010340252        5.2993801827       34.7243989934
  H        10.6318804521        6.4741375757       34.5387028495
  C         9.8559153697        5.7363247004       29.2127079206
  H        11.7064184555        6.6083199262       29.9059764858
  H        10.2382438025        7.6276724463       30.1100089724
  C        10.3685813649        5.9097607963       27.7893129136
  H        10.0146270869        4.6705480466       29.4421699397
  H         8.8025026770        5.9075330609       29.1934819434
  C         9.5174815235        5.2371181629       26.7679304732
  H        11.3507020682        5.3096033956       27.9146592817
  H        10.5720421115        6.9254238996       27.4901346295
  C         8.2599498967        6.0531405558       26.5490166808
  H        10.0783562871        5.0467053159       25.8626658950
  H         9.1884332549        4.2175175219       27.0234455464
  C         7.2810314240        5.3727632467       25.5255944293
  H         7.7588090401        6.2622687803       27.4843640399
  H         8.4795848239        7.0610172414       26.1078198877
  C         6.9350881148        4.0064076077       26.1847919911
  C         7.7956581550        4.6384182770       24.3375865506
  C         5.9848031423        6.1926152650       25.2422417247
  C         7.2486738361        2.9476853627       25.3973468531
  C         6.3294516556        3.6645698780       27.4155942667
  C         7.7799295001        3.2754117163       24.2419722940
  C         8.2498082961        5.2783716782       23.2180736373
  H         6.2177832134        6.9871296817       24.4844019985
  H         5.7756939590        6.7553525895       26.1466475291
  C         4.7512782901        5.3310322451       24.6778859241
  S         6.7228808402        1.4341792153       26.1138945908
  C         6.1716553726        2.2904428723       27.5175878662
  H         6.1521032305        4.5094169367       28.1023093565
  C         8.0941891208        2.6132666498       23.0387691349
  H         8.4109650546        6.3767893079       23.2717753989
  C         8.6344555440        4.6738732494       22.0710487840
  H         5.0027969128        4.7910998527       23.6708502449
  H         4.5048438786        4.5075457676       25.2886530350
  C         3.5208028905        6.2032145898       24.5502677340
  C         5.7479495823        1.5832723589       28.8083133987
  C         8.5485702667        3.3255704972       21.9057621164
  H         8.0448883043        1.5115564671       22.9783815055
  C         9.0857564603        5.0905193581       20.8577888505
  H         2.7492881384        5.6990421995       23.9599956201
  H         3.6390452929        7.2141467069       24.1017425229
  C         2.7010258194        6.3468487096       25.8794883476
  C         5.9003219739        0.2223938784       29.1101836013
  C         5.3012487106        2.4051882474       29.9150297346
  C         9.0503709714        2.6724486341       20.5983173586
  C         9.3316968970        4.0366963364       20.0242171625
  S         9.4744790457        6.6677899208       20.1318380332
  H         1.7435392037        6.8673906557       25.8162121607
  H         3.2199707210        6.8927091247       26.6589527048
  C         2.1311023134        5.0544666724       26.4813299566
  N         6.3114547599       -0.7306703286       28.1810150169
  C         5.6825883360       -0.3073952347       30.3695647889
  C         5.1354555903        1.9525886332       31.2053245693
  H         5.0796669195        3.4335870214       29.7512913331
  C         7.9065367753        1.9332719713       19.8690382168
  C        10.3171168981        1.7512963126       20.7131703065
  C         9.7222479795        4.4592362778       18.7430408208
  C         9.7086534499        5.8050586011       18.6118342690
  H         1.3492877528        4.6254573437       25.8242533000
  H         2.8824950484        4.2253751796       26.6211052987
  C         1.4272610746        5.0876373202       27.8546864787
  S         6.3269384821       -2.1677582049       28.9109320239
  N         5.8632244069       -1.6726964191       30.4094240326
  C         5.2621720519        0.4926953453       31.5194465883
  H         4.7478640655        2.5957340787       31.9356756578
  H         7.4118051357        1.2574139517       20.5295499947
  H         8.3180394353        1.4789551697       19.0026076262
  C         6.8327428579        2.8502846490       19.3881076665
  H        10.4789618803        1.3785825528       19.7206216339
  H        10.0200726156        0.9508687469       21.3933262695
  C        11.5915007444        2.5028379057       21.1574421401
  H         9.9007088258        3.6308717358       18.0640373612
  C        10.1369383377        6.5260586656       17.3591293214
  H         1.2852717717        4.0855462509       28.1480854163
  H         0.5027749466        5.5779240396       27.8211068161
  C         2.3254459247        5.7411789852       28.9181079087
  C         5.0003445399       -0.1547733672       32.7576295047
  H         7.2835981459        3.5931832497       18.7014452869
  H         6.3323840379        3.4854137593       20.2083248216
  C         5.7205779391        2.0857422911       18.6257524058
  H        11.6171341668        3.0795920532       22.0530576071
  H        11.7760206197        3.2602548108       20.3557942341
  C        12.7518014900        1.5444520864       21.2583937893
  C        10.1577532255        7.9328839931       17.2496143315
  C        10.4068404823        5.7424278736       16.1083734430
  H         3.2873465257        5.2796217572       29.0677955295
  H         2.5317575092        6.7484362908       28.6907295802
  C         1.6438104649        5.7118716109       30.2211214066
  H         5.0874412573       -1.1722465981       32.6346376452
  C         4.6936021492        0.1931961486       34.0146967179
  H         5.1168390846        1.6631232455       19.3865428557
  H         6.3027865228        1.4114795387       18.0743189523
  C         4.7673237273        2.9184913482       17.7138241513
  H        12.7027056338        1.0189032869       22.1751098762
  H        12.6836618614        0.8987880127       20.3935608190
  C        13.9641177010        2.2859397303       21.0790981303
  N         9.9596014959        8.8374208640       18.2907321102
  C        10.4179371784        8.5997647825       16.0626568624
  C        10.6114419594        6.4367131313       14.9503021428
  H        10.4529265439        4.7250171887       15.9783095303
  H         1.0919610504        4.7884427183       30.3775911062
  H         2.2653847896        5.7995240337       31.1076771920
  H         0.9598392652        6.5696535408       30.1138461814
  S         4.3628005528        1.7846645497       34.4898251422
  C         4.6412270852       -0.8465993086       35.0817814949
  H         5.0413490104        3.9184628086       17.8242146061
  H         4.9601536249        2.7869282625       16.6231239966
  C         3.3329119591        2.6105755240       17.9944695209
  H        13.9770311976        2.9264756747       20.2617874240
  H        14.4910971454        1.4364631757       20.6546728760
  C        14.7508320093        2.9084350330       22.2408348903
  S         9.9164930083       10.3608782815       17.7495236966
  N        10.4117269217        9.9779799578       16.2797552324
  C        10.6533429596        7.9396016338       14.8567323913
  H        10.7898098111        5.8166853547       14.0356298151
  C         4.1444324820        1.0576557029       36.0830615388
  N         4.2970856300       -0.2788807018       36.2340920350
  O         4.8149218574       -2.0625217770       34.9064265679
  H         2.7857622572        3.2828795645       17.3710671353
  H         3.0688321517        3.0468046918       18.9638509322
  C         2.7846422430        1.1530324453       18.1663373339
  H        15.6887577508        3.2235624186       21.8258911850
  H        14.2835696743        3.7025328130       22.7153567410
  C        15.1054222549        1.9433060829       23.2670838558
  C        11.1163799106        8.6397091853       13.6874369779
  S         3.6520830885        1.8666467384       37.5384411369
  C         4.3190095621       -1.0480626087       37.4626535356
  H         3.3220350961        0.4948618545       18.8820255810
  H         1.8367019464        1.2388081146       18.6713616511
  C         2.9113307744        0.3425956194       16.8912187588
  H        15.1540369991        0.9127863671       22.8621210292
  H        14.2312039092        1.8511960479       23.8929255017
  C        16.4638359592        2.1472193370       23.9778205951
  H        10.9792680139        9.6810804482       13.8170369255
  C        11.6016481544        8.2116929885       12.5102543105
  H         3.6209367629       -0.7181817390       38.2903069546
  H         4.0180325710       -2.0455784942       37.1586736973
  C         5.7221623132       -0.9519587514       38.0781718419
  H         3.9637105948        0.1768447048       16.5767772988
  H         2.4287869524        0.8259265262       16.0167441707
  C         2.3273860438       -1.0702271539       17.0145697200
  H        16.4188792330        3.1163806882       24.4903980754
  H        16.7264421221        1.4014767472       24.6837918068
  C        17.5896428080        2.2453853091       22.9232311341
  S        12.1047004463        6.6695571514       11.9923486375
  C        11.7503839189        9.3580046857       11.5369224342
  H         5.9661390828       -1.9944827449       38.4568462859
  H         6.5329976797       -0.8267317687       37.3604777723
  H         5.6065807147       -0.1771505001       38.7783550689
  H         3.1802157815       -1.7206694813       17.0645930909
  H         1.8575801040       -1.4837812277       16.1700914965
  H         1.6075539951       -1.2436627844       17.7829538320
  H        18.5880694788        1.9890572906       23.2428054541
  H        17.7619060758        3.3053224167       22.5921325427
  H        17.3060904349        1.5689713441       22.0424080668
  C        12.5454824747        7.5456383266       10.4564132178
  N        12.3350943592        8.8829600578       10.4275091976
  O        11.1918681264       10.4907505532       11.6309201219
  S        13.2227976554        6.7758329829        8.9893794516
  C        12.4918420924        9.6878696482        9.2225879173
  H        12.7625947234       10.7430066694        9.5078410215
  H        13.3045186592        9.3331676848        8.5251856303
  C        11.1500039951        9.7619101651        8.4476062319
  H        10.5785954427       10.5434095077        9.0015521476
  H        11.2081726378       10.2879930743        7.5504559838
  H        10.5391510242        8.8672140363        8.3717598398
  H        20.4469967179       11.8582264973        3.8829638727
  C        20.8892660473       10.9127424991        3.6651636589
  H        20.0743220048       10.1811268781        3.9379939726
  C        22.0894413317       10.7916715394        4.6371375749
  C        21.3362983032       10.7306482933        2.2368201115
  C        21.7307783425       10.9635425409        6.0983022890
  H        22.6849398174        9.8931080222        4.6808291828
  H        22.7839458310       11.6891281057        4.4051461714
  H        21.1605919988       11.6269310920        1.5484041393
  H        20.8496287198        9.8730034136        1.7334159635
  H        22.3998550550       10.6105659925        2.1823436758
  C        21.0576987216        9.7357851354        6.6578653000
  H        22.7187979181       11.3005729693        6.4762200432
  H        21.0354948939       11.8618974715        6.1208237975
  C        20.4549080335        9.9495557082        8.0365615371
  H        21.6980945669        8.8891744746        6.6567262326
  H        20.3223167272        9.3644745606        5.9574079187
  C        19.1657537461       10.7488652921        8.0623978618
  H        21.2032173428       10.5020333277        8.6425568414
  H        20.2913216345        9.0363700141        8.4894035732
  C        17.9637182864        9.9765279289        7.5709510798
  H        18.9766553082       11.1313928383        9.1220757972
  H        19.3528755971       11.6853554072        7.5079144522
  C        16.7570123832       10.9289299851        7.3144064908
  H        17.6209014717        9.3739774345        8.3888192102
  H        18.0770764568        9.3303959204        6.7361813853
  C        17.1558886576       12.2428664552        6.6631565474
  C        16.3035988926       11.6724629853        8.5231146278
  C        15.6441315858       10.1977685080        6.5502300990
  C        16.8319767095       13.3696424307        7.4306294680
  C        17.7414866493       12.5981404357        5.4636472570
  C        16.2824113431       12.9945887522        8.6247733399
  C        15.7821968148       11.0382799900        9.6492223580
  H        15.9803201825        9.8542554045        5.5517222977
  H        15.4148321166        9.3464565561        7.1556160811
  C        14.3428497125       10.9537595368        6.3010829773
  S        17.3113825674       14.8928777997        6.6157159105
  C        17.8317548713       13.9720811702        5.2568522918
  H        18.1531570099       11.8025711112        4.7415568104
  C        15.8422687649       13.5882579907        9.7445977883
  H        15.7088776917        9.9573402796        9.6672668666
  C        15.3167261016       11.6297441443       10.7992536704
  H        14.5041681547       11.9941670721        6.1045526040
  H        13.7862184930       11.0473880454        7.1599353511
  C        13.4813479652       10.3317008954        5.2460018063
  C        18.2482198803       14.7032822859        4.0041059687
  C        15.3378962908       12.9680565715       10.8902324064
  H        15.8574078141       14.6252699996        9.8907742657
  C        14.9076703732       11.2673845782       12.0680075754
  H        12.6067531275       11.1007026396        5.0985697383
  H        13.1377581329        9.3297547390        5.5504097213
  C        14.0652537913       10.2294523832        3.8347205041
  C        18.1199370746       16.0648454025        3.6215446571
  C        18.4670053577       13.8005144684        2.8610123631
  C        14.9689360778       13.6392682431       12.1187032984
  C        14.7684525196       12.3340801345       12.9080773200
  S        14.7011317820        9.7349308292       12.7564500057
  H        14.4205316956        9.1896422443        3.7284445328
  H        14.9513991169       10.9216202761        3.7251001000
  C        12.9936226406       10.4797492614        2.7868559546
  N        17.8458497444       17.1315034047        4.5581334284
  C        18.3299263831       16.5828024342        2.3554870131
  C        18.6698828526       14.3064228786        1.5636869562
  H        18.5612666344       12.7365152711        2.9006319774
  C        13.7531186711       14.5125155546       11.9583060472
  C        16.1819495147       14.4958720493       12.6099847173
  C        14.4632291181       11.9048943476       14.2337181164
  C        14.3438016940       10.4997722493       14.2830515951
  H        12.1959047537        9.7343742569        2.8529092303
  H        12.6220050843       11.5233066435        2.7561034098
  C        13.5939001818       10.2463461132        1.4003153530
  S        17.8265767036       18.5521600752        3.7887508155
  N        18.0819489408       17.9732846594        2.2829448945
  C        18.5624050159       15.7635208767        1.2618864672
  H        18.9433673367       13.5787186483        0.7710891920
  H        13.9936823251       15.5375837732       11.5019049588
  H        13.3252095654       14.6553138603       13.0048795956
  C        12.5703374126       13.8147032433       11.2594759100
  H        16.5752365409       15.2881162620       11.9354780975
  H        15.7346658436       14.9357930777       13.5024598578
  C        17.3274258351       13.6777672223       13.1841416297
  H        14.2613337520       12.5920513345       15.0471182339
  C        14.0056434948        9.7037123457       15.5024896301
  H        14.1471749731        9.2322012936        1.4077169126
  H        14.3010620144       10.9788482617        1.1158532427
  C        12.6049926792       10.2384601659        0.2383696244
  C        18.7188431517       16.3567920205       -0.0012370850
  H        12.8288758470       13.7824063331       10.1866646719
  H        12.4483229417       12.8638133647       11.7286113274
  C        11.2677029795       14.5902001810       11.2724305049
  H        17.5431375091       12.8926118700       12.4269390093
  H        17.0169753185       13.1346649774       14.0775120847
  C        18.6556504233       14.4908124402       13.2846169641
  C        13.9015479555        8.2952306606       15.6268091209
  C        13.7468847493       10.5021697069       16.7774963364
  H        12.3280521597        9.1904201189        0.0182258147
  H        11.6812595230       10.6178415056        0.6306158744
  C        12.8968637023       10.9914394669       -1.0925097608
  H        18.6190222985       17.4146964547        0.0303134083
  C        19.0430017569       15.9153892324       -1.2623239409
  H        11.3530714450       15.4318956847       10.5039415194
  H        11.2053931165       15.1327570272       12.2287515840
  C        10.0169764277       13.7875538385       10.8468600155
  H        18.8190117975       14.9221813955       12.3465466234
  H        18.4945873241       15.3372213718       13.9685101115
  C        19.8360217444       13.6756186319       13.8900958417
  N        14.3580144902        7.3747663897       14.7055093123
  C        13.6192018042        7.6954562830       16.8463206818
  C        13.4281729057        9.8543090781       17.9468359824
  H        13.9036722131       11.6145452002       16.7828154480
  H        13.1458930839       10.1685761864       -1.7738145780
  H        13.6446696908       11.7872873192       -0.8328309577
  H        12.1211443151       11.5948431389       -1.5477125182
  S        19.3657521127       14.2833026065       -1.6292513894
  C        19.1746806731       16.8446769727       -2.3755630887
  H        10.3159335700       12.7730134917       10.5870244262
  H         9.2824737003       13.6374650172       11.6172684266
  C         9.3773416097       14.3506688212        9.6460857012
  H        19.7893590046       12.6630579127       13.4990330499
  H        19.6330266122       13.4699027899       14.9652724272
  C        21.1360380706       14.3698684059       13.6749666339
  S        14.2531819868        5.8859942320       15.2400023862
  N        13.7528087971        6.2648265385       16.7447785186
  C        13.3269804416        8.3764742635       18.0328717084
  H        13.4063948686       10.3883114519       18.8609355518
  C        19.6673708056       14.8737512324       -3.2840282037
  N        19.6484109943       16.2242237177       -3.3963230406
  O        18.9042848898       18.0331021956       -2.3182897899
  H         8.8787924390       15.2767764137        9.9439949390
  H        10.1485611362       14.6091249494        8.9163564819
  C         8.3247739236       13.3708549465        9.0783788744
  H        21.9127083120       13.6797671799       13.4638865511
  H        21.0467175614       14.9993280078       12.7471031792
  C        21.6025056760       15.0701809190       14.9456250090
  C        13.0247241913        7.5716322395       19.2172069546
  S        19.9582654724       13.8186657335       -4.6485208801
  C        19.9432484351       17.0447874094       -4.6575416037
  H         8.9312044539       12.7025798028        8.4646069957
  H         7.9107562933       12.7157414982        9.8028733174
  C         7.2051853311       14.0238088802        8.3698863775
  H        22.6826843400       14.8854735338       15.1391133718
  H        21.1222262317       14.6886416995       15.8429550895
  C        21.4116520409       16.5826992195       14.8479747869
  H        13.1438212891        6.4292027751       19.0955877584
  C        12.4978807266        7.9576294188       20.4753383226
  H        20.6643855733       16.4556580043       -5.3619841415
  H        20.3733155939       17.9942990905       -4.3379895074
  C        18.6788160556       17.3535028091       -5.4637663904
  H         6.9203289794       13.3334256810        7.5361425678
  H         7.3716763886       14.9675081873        7.8797902545
  C         5.9669133862       14.1469625564        9.3037143953
  H        20.3504524425       16.8094576270       14.6106118093
  H        21.5880142442       17.0852049005       15.7610453775
  C        22.3296971451       17.2093762677       13.7718286480
  S        12.0385103416        9.5260564014       20.9453080954
  C        12.4536691780        6.9326986530       21.5575130674
  H        18.7194343795       16.5763102954       -6.2269062915
  H        18.6272732661       18.3207073622       -5.9235578344
  H        17.7878522032       17.2798159899       -4.8889429909
  H         6.1910198434       14.8309166576       10.0767547832
  H         5.0268251035       14.4864175710        8.8628669820
  H         5.7233385465       13.2550545197        9.7851893705
  H        21.6931024982       17.3034953910       12.8563130551
  H        22.6887233621       18.2265115251       14.0895783424
  H        23.1414845168       16.5989992519       13.4900481120
  C        11.9179495739        8.8564072916       22.6037208541
  N        11.9459974346        7.4639761459       22.6677853941
  O        12.7679285983        5.7629026334       21.4662431041
  S        11.2602346115        9.7100785301       23.9083258322
  C        11.7734074592        6.7083279718       23.8851977754
  H        11.4253976511        5.7825858443       23.5092814925
  H        10.9451940499        6.9868392697       24.5682081583
  C        13.0669950025        6.6560077845       24.7270473884
  H        13.0369345546        7.2057709868       25.7096024400
  H        13.8939225868        7.0530609480       24.1241419507
  H        13.1963725603        5.5923283724       24.9483498437
