352
 i =    38900, time =    38900.000, E =        25.0142238034
  H        11.4902296208        7.1500728235       31.9676464027
  C        11.3344487608        6.1273354864       32.1490581698
  H        12.2902291440        5.5979015681       31.9486050543
  C        10.3388852028        5.5969531295       31.0996447998
  C        10.9534454361        5.8426533705       33.5906490397
  C        10.6950382428        6.1271506813       29.6418025652
  H        10.3916282890        4.4801505667       31.1171960964
  H         9.3193567342        5.8595207645       31.4204141099
  H        10.5388316880        4.8983073902       33.9706896197
  H        11.8269533209        6.0532474970       34.2054773197
  H        10.2278743122        6.5995507468       33.9661706906
  C        10.5458796147        5.0573930952       28.5037809487
  H        11.7189585725        6.5915481998       29.5879528275
  H         9.8619908718        6.8189472955       29.4481690304
  C        10.7922343065        5.6467979783       27.1297264945
  H        11.2109898418        4.1752575169       28.5744656402
  H         9.5154674199        4.6718738381       28.4102979473
  C         9.9576180325        4.8255280597       26.0967855516
  H        11.8167221268        5.6924474178       26.9246047520
  H        10.3169332792        6.5903205576       27.0345208872
  C         8.5737899231        5.5491986978       25.8651928593
  H        10.5571906714        4.8269026007       25.1858022140
  H         9.8814277889        3.7812633088       26.2815669224
  C         7.4605759334        4.8919910631       25.0853373369
  H         8.2036285161        5.8585171911       26.9295608705
  H         8.6884962293        6.4162142667       25.2885339560
  C         7.2113535934        3.4749836271       25.7703899269
  C         7.7949391347        4.2504746738       23.7964793756
  C         6.1762199287        5.6913602920       25.0585687254
  C         7.3539842350        2.4328814877       24.9506881430
  C         6.7871169997        3.1099003059       26.9910760034
  C         7.7464406854        2.8898524388       23.7143228936
  C         8.2877324747        5.0040969364       22.7663504454
  H         6.2564450639        6.5859794938       24.4837503924
  H         5.8409475466        6.0516959824       26.0107679964
  C         4.9481871195        4.8923800113       24.5368892165
  S         6.9846342034        0.9402548034       25.7718747704
  C         6.5118386169        1.8072959649       27.1848543146
  H         6.6131429692        3.8259772760       27.7792635630
  C         8.0991747040        2.3196160815       22.5001994430
  H         8.3614475055        6.0254203463       22.9601269719
  C         8.6921862046        4.4241894376       21.6302503139
  H         5.2230300667        4.4213434292       23.5985977629
  H         4.7145476434        3.9798100185       25.2026487999
  C         3.6277370831        5.7071872402       24.3961450398
  C         6.0649148009        1.2003682444       28.4506013552
  C         8.5829751173        3.0601961410       21.4704164270
  H         8.1012864288        1.2615009847       22.5086055300
  C         9.1636286980        4.7586146187       20.3827608191
  H         3.0675410158        5.1851206138       23.7209336873
  H         3.8724718058        6.6844187616       23.8884205652
  C         2.8090748683        6.0999903811       25.6428997802
  C         6.0271341721       -0.1479333655       28.7371936413
  C         5.6283236796        2.1361623236       29.5041512075
  C         9.0390767620        2.3403074201       20.2222070368
  C         9.3645325298        3.6803362453       19.5788250458
  S         9.3943183033        6.2419480660       19.5724973244
  H         2.1533508038        6.9539376293       25.3886853624
  H         3.4568120368        6.4928219886       26.4398628112
  C         2.1130468512        4.9537882716       26.2889952468
  N         6.3245429565       -1.1071607766       27.7743698342
  C         5.6750693252       -0.6306636391       29.9683762015
  C         5.2912437214        1.6546822336       30.7714742024
  H         5.4952092932        3.1989648595       29.4770768133
  C         7.8299644464        1.5285147468       19.6182791599
  C        10.3895725268        1.6154278328       20.3270761551
  C         9.8340870786        4.0422494279       18.2798441544
  C         9.8408008281        5.4422013468       18.1416006961
  H         1.2710941832        4.6614745346       25.6475296495
  H         2.7688919038        4.0713849995       26.4061432504
  C         1.5735065738        5.2847417417       27.6684189750
  S         6.2979539040       -2.6247126941       28.5258732250
  N         5.7208442405       -2.0753188623       29.9516462729
  C         5.3133574769        0.1730009860       31.0663094707
  H         4.9558360557        2.4037410525       31.4294253847
  H         7.3513637295        0.8800757056       20.3570312994
  H         8.1718509932        1.0138132280       18.6972064662
  C         6.7337239465        2.3958391289       18.9166858382
  H        10.7353018332        1.2333521974       19.3840421176
  H        10.1575915352        0.6268224912       20.7614161792
  C        11.5758280710        2.4531353752       21.0445429497
  H        10.0451685544        3.2536745420       17.5784301503
  C        10.1198649524        6.2202082205       16.8594866706
  H         0.6758378782        4.6406481624       27.9757250855
  H         1.0451207260        6.2423217406       27.7187611882
  C         2.5931090628        5.2344742489       28.7063510418
  C         5.0212125158       -0.5007895255       32.2914268861
  H         7.1545963434        2.7647373700       17.9687447015
  H         6.4658691970        3.2866125630       19.4340713736
  C         5.5907595136        1.4465164201       18.5792526869
  H        11.6817492136        2.2219977953       22.0943595640
  H        11.6010224452        3.5607855932       20.9925805641
  C        12.9088318022        1.7677993946       20.5473920721
  C        10.0575751584        7.6496739488       16.6907069425
  C        10.4529643798        5.4751109023       15.6286798911
  H         2.9243399732        4.1896326783       28.6996422978
  H         3.3809512978        5.9008761591       28.5414183231
  C         2.0426404757        5.3923365963       30.0488692346
  H         4.7965454472       -1.5442059127       32.1652989652
  C         4.7808618582       -0.1113214037       33.6054031881
  H         5.1975272478        0.9643374150       19.4877661581
  H         5.8469926200        0.5915662005       17.9412921921
  C         4.3819530294        2.1367553914       17.9128405638
  H        12.9916488535        0.8082816732       21.0446841232
  H        12.8492467494        1.4713581636       19.5359986892
  C        14.0853727909        2.7211824409       20.8332961209
  N         9.6828723579        8.5985893095       17.6617404469
  C        10.3537085999        8.2207407998       15.4794832120
  C        10.6209967990        6.0324128898       14.4054278747
  H        10.4097200178        4.3897218094       15.6754020295
  H         1.4353407528        6.3063545672       30.0301146133
  H         1.3758054981        4.5801165999       30.2738966401
  H         2.8632780923        5.2279474578       30.7800771800
  S         4.5560008245        1.5461062579       34.1688231410
  C         4.5628001207       -1.1127225707       34.6166828442
  H         4.4951568178        3.2421926908       17.9443142331
  H         4.4293636307        2.0141605839       16.8174840821
  C         3.0761507509        1.6548329709       18.5696171469
  H        13.8790297478        3.7960089042       20.5716622768
  H        14.8435599989        2.4490929502       20.1065380346
  C        14.5282497900        2.7010967418       22.3204584518
  S         9.5767033882       10.0813461632       16.9741979597
  N        10.1141363294        9.6450367587       15.5289887691
  C        10.7725240425        7.5317302055       14.2974224219
  H        10.7755251707        5.4075653046       13.5235418722
  C         4.3378871123        0.8011151857       35.7211111921
  N         4.2127043424       -0.5080707922       35.7510297423
  O         4.5829214049       -2.3081600968       34.3914579475
  H         2.2121946453        2.2839498767       18.1989182021
  H         3.1551822674        1.9251179784       19.6051439788
  C         2.8080156015        0.1733051123       18.4296225126
  H        15.1474754895        3.5584898974       22.5624844763
  H        13.5827609628        2.6763943604       22.9252937348
  C        15.1699502089        1.3654805393       22.6795818783
  C        11.0116856489        8.2487608091       13.1150984745
  S         3.8339822359        1.6308353790       37.1461639310
  C         4.2696430726       -1.3117348648       36.9867618773
  H         3.5710865299       -0.4229030180       18.8530840953
  H         1.8782697148       -0.0515304934       18.9142962530
  C         2.4820059076       -0.2727305816       17.0014870009
  H        15.0548284332        0.6285354245       21.9110460850
  H        14.6661880191        0.9409857233       23.5566658394
  C        16.6036126104        1.5022331642       23.1059566491
  H        10.8665801800        9.3214483436       13.1872915759
  C        11.4401145112        7.8935018389       11.9039630898
  H         3.5702891921       -0.8857456014       37.7253706805
  H         3.8088675870       -2.3680445873       36.8338379852
  C         5.7060123852       -1.5328526871       37.4333511968
  H         3.2697175149       -0.0722153169       16.3052507532
  H         1.5870559487        0.3325554298       16.7139989282
  C         2.1501157873       -1.8047475930       16.9006863173
  H        16.6898600289        2.3041710884       23.8056212084
  H        16.9433030829        0.6359567067       23.6783433056
  C        17.5943650182        1.7404582988       21.9737493783
  S        11.9713449731        6.3289488770       11.4391014229
  C        11.5373139696        8.9391642508       10.8493255164
  H         5.6898887225       -2.1886576594       38.2337269910
  H         6.4144883795       -1.8865209329       36.7163677058
  H         6.1351241111       -0.6856055203       37.9493936486
  H         3.0297146016       -2.4180425949       17.2778988271
  H         1.9007560536       -2.2348916505       15.8733472781
  H         1.3806724081       -2.0952897758       17.5972470322
  H        18.5182644205        1.9705304773       22.4314606600
  H        17.2954688661        2.5945438880       21.4505111733
  H        17.5339050830        0.8330872015       21.4027127880
  C        12.3775180250        7.0848112208        9.8793471551
  N        12.1038264312        8.3928454023        9.7911602213
  O        11.2470644779       10.1090791548       10.9269933102
  S        12.7853757256        6.1350873792        8.4446722943
  C        12.2727021877        9.2067280536        8.5542009476
  H        12.2036872923       10.2846192460        8.6561647641
  H        13.2249077071        8.9593583261        8.0872904811
  C        11.1220352072        9.0626317619        7.6794632333
  H        10.4223354120        9.8458830548        7.7895205570
  H        11.4441674478        9.0309260123        6.6044057172
  H        10.6029699254        8.1641041056        7.8647930375
  H        20.4487531336       12.2196938889        4.2374563064
  C        20.6622917900       11.1767042029        4.0365021736
  H        19.8165192700       10.5598591364        4.4721327467
  C        21.9003760259       10.6687134433        4.6835391745
  C        20.9096721294       10.9186602825        2.5197199293
  C        21.5295483188       10.8257967631        6.1681300471
  H        22.1768465757        9.6248293770        4.5545479858
  H        22.7760373302       11.3040712864        4.4631265045
  H        20.1702135789       11.4147656969        1.8230523701
  H        20.9638028802        9.8143334778        2.3348491167
  H        21.9170922439       11.3332998223        2.2183968199
  C        20.8876927851        9.5481281263        6.7283870191
  H        22.6327479409       10.8933056823        6.5087291799
  H        20.9962035891       11.7558847291        6.3609307245
  C        19.9390168997        9.7972730621        7.9540337469
  H        21.7947326995        8.8716830570        6.9407253878
  H        20.3109809857        9.0704175033        5.9558679748
  C        18.7353267275       10.7341774911        7.7341481026
  H        20.6077104340       10.2851929698        8.6790882010
  H        19.5909822237        8.8657891945        8.4454877054
  C        17.4798189130       10.0564169858        7.1227359904
  H        18.4833366233       11.2436399027        8.6888477889
  H        19.0794072687       11.6075310096        7.0673559171
  C        16.2436861082       10.9500690097        6.9883030662
  H        17.1467607703        9.1864382865        7.7198591720
  H        17.8090856092        9.6986861775        6.1036919870
  C        16.6784043261       12.3300316123        6.4251831303
  C        15.8334418786       11.6250245713        8.2462221375
  C        15.0944696063       10.3078651538        6.1904015004
  C        16.4671461870       13.4160131251        7.2739408922
  C        17.1895412488       12.7210457593        5.2234063984
  C        15.9000800266       12.9831554616        8.4337258962
  C        15.4112821982       10.8727774709        9.3208542323
  H        15.4855074235        9.8677362468        5.3038197050
  H        14.6589069855        9.4792648247        6.6692305299
  C        13.9733224684       11.1783297082        5.7685835012
  S        16.8814566747       14.9442338762        6.5537934423
  C        17.3476461360       14.1052788831        5.1026468828
  H        17.1969051165       11.9168618403        4.4766221272
  C        15.5030578345       13.5242957792        9.5992015572
  H        15.2535062582        9.8230278734        9.2331671936
  C        15.0460842710       11.4134550961       10.5700029096
  H        14.3031731814       12.1148773822        5.2496932637
  H        13.3694755057       11.6259510109        6.6135212861
  C        12.9899615216       10.5336179285        4.7378400350
  C        18.0056754911       14.7187661197        3.8814346077
  C        15.1313002906       12.7609473455       10.7207537571
  H        15.5189624510       14.6114766284        9.7740379185
  C        14.7187189451       10.9907375856       11.8286898605
  H        12.1041367017       11.1561338635        4.7600684305
  H        12.7566864903        9.5167087544        4.9564673118
  C        13.5434953381       10.6585849333        3.3049371333
  C        18.0541757653       16.0371302630        3.5644123805
  C        18.4080702248       13.8003766772        2.7597657023
  C        14.6710707108       13.4159754155       11.9208432556
  C        14.4431568624       12.0784895319       12.6512408399
  S        14.4401829378        9.5320504629       12.6407321021
  H        14.3438549552       10.0439137542        3.1409566393
  H        14.0092677246       11.6183925401        3.0064786320
  C        12.5469789910       10.4095282882        2.2563389587
  N        17.7637501965       17.0436403178        4.4771355337
  C        18.3794168066       16.5602877764        2.3586236301
  C        18.8950506409       14.3597529189        1.5780759398
  H        18.4766923287       12.7261311196        2.9383161414
  C        13.3834690159       14.2769819476       11.7703083657
  C        15.7144834851       14.1561037450       12.7779374038
  C        13.9798504674       11.7184163643       13.9229972700
  C        13.9236353023       10.3756268775       14.0641560131
  H        11.9774297072        9.5314394117        2.4238249666
  H        11.7670021788       11.1373412681        2.2908883950
  C        13.1756339666       10.3709398738        0.8472162269
  S        17.8589752589       18.4498780601        3.7466597598
  N        18.3387341902       17.9697788755        2.2380292365
  C        18.8084631060       15.7824690998        1.2354839229
  H        19.4518045351       13.6874588799        0.8789963609
  H        13.5264853770       15.1699858946       11.1264646769
  H        13.0503712147       14.5195613921       12.8084217177
  C        12.2529586651       13.5266490493       11.1978044873
  H        15.9150005488       15.1067371430       12.3287635435
  H        15.2917080452       14.3273596709       13.7995012939
  C        17.0028855649       13.3952989150       12.9891976224
  H        13.9553503742       12.5187656277       14.7630587302
  C        13.6008847493        9.7306618413       15.3430696073
  H        13.7997817187        9.4701911234        0.7286059547
  H        13.9194641796       11.1437253858        0.7939960046
  C        12.1951192543       10.3192365063       -0.2952024058
  C        18.9655754109       16.4746885172        0.0031305520
  H        12.4851503492       12.9240565666       10.3114659642
  H        11.8738639590       12.8597778200       11.9721824956
  C        11.0693932165       14.3661472857       10.8771446882
  H        17.7049176838       13.7290001400       12.2434397200
  H        16.9886488598       12.2736010784       12.9719611970
  C        17.5591024378       13.9087274149       14.2650630575
  C        13.8332839867        8.3748130065       15.6012982298
  C        13.1620472634       10.5360103252       16.5204687789
  H        11.7819722594        9.2940725093       -0.5333067595
  H        11.2414672982       10.7936571643        0.0491690231
  C        12.7101579976       11.0659972003       -1.5803177688
  H        18.6030946253       17.4647251922       -0.0202207499
  C        19.2181392731       16.0101449939       -1.2795971585
  H        11.3248659729       14.9077177602        9.9411155118
  H        10.8895358206       15.0975281562       11.6678402536
  C         9.8101792670       13.6025030965       10.6233335396
  H        17.3789898818       14.9848834195       14.0933119865
  H        16.9717659246       13.6531497948       15.1269248453
  C        19.0392499363       13.5127411502       14.5854642027
  N        14.2255840156        7.3860382173       14.6230249604
  C        13.4497505071        7.7972294595       16.8129151366
  C        12.8598692548        9.9895061640       17.7244251842
  H        13.1909964029       11.6237277442       16.4911920543
  H        13.2349618836       11.9153101982       -1.2407843305
  H        12.0077344363       11.5742434974       -2.2256225948
  H        13.2146135180       10.3726331416       -2.2555023645
  S        19.6313445001       14.3590492049       -1.7411583088
  C        19.3362257737       17.0302248751       -2.3463173149
  H        10.0366151915       12.7098376852        9.9963190508
  H         9.5508664791       13.1588567737       11.5803598412
  C         8.7145280541       14.4632680947       10.0165394102
  H        19.0774433103       12.4986822869       14.3238025118
  H        19.1842540104       13.5358395702       15.6992264871
  C        20.0504188751       14.3162778652       13.7716161767
  S        14.2667117873        5.9781621134       15.3863484777
  N        13.5499985141        6.4057435256       16.8044346617
  C        13.0364516216        8.5110637143       17.9124486852
  H        12.5308592493       10.6150082494       18.4785777271
  C        19.8896945529       15.0159033276       -3.3089897571
  N        19.8837251526       16.3906348394       -3.4246454939
  O        19.3687009179       18.2518187730       -2.1848912027
  H         8.2718237814       14.9574426848       10.8769094253
  H         9.1536202441       15.0773462250        9.2325221522
  C         7.8271705573       13.4352228155        9.3486435246
  H        20.3106972458       13.7928723746       12.8746081655
  H        19.5823326185       15.2060708729       13.3357735880
  C        21.2415152040       14.8224154986       14.5509019470
  C        12.9214405406        7.7833364343       19.1656691858
  S        20.3339960438       14.0927981230       -4.7445404222
  C        20.1068676149       17.0438360327       -4.6931787062
  H         8.3535007358       12.9388840866        8.5148272789
  H         7.5966266110       12.5285026337        9.9216102729
  C         6.5419717810       13.9992449803        8.7504082217
  H        22.1178860898       14.8304057585       13.9039918840
  H        21.4920674684       14.1781121166       15.3956488232
  C        21.1069706236       16.3342715704       14.9833619989
  H        13.4299116954        6.8267635018       19.2238749973
  C        12.3612812173        8.2108701731       20.3670469230
  H        20.9049356190       16.7211073153       -5.3639873617
  H        20.3727049565       18.0748121451       -4.4594057045
  C        18.8447079128       17.0585671241       -5.5580968202
  H         6.0275662173       13.3585817287        7.9758148280
  H         6.6589524229       15.0071941821        8.3833192374
  C         5.4185059656       13.9169476813        9.7869711693
  H        20.0544624139       16.6640522210       15.1301031488
  H        21.3267473278       16.4541395722       16.0041273909
  C        22.0327774007       17.3603354105       14.3841443472
  S        11.5222748939        9.6714174272       20.7643365319
  C        12.4899488621        7.2468738607       21.4326598777
  H        19.2537001327       16.5442328924       -6.4483051939
  H        18.6080729240       18.1333382944       -5.7468020951
  H        18.0159160635       16.4944918263       -5.0906246570
  H         5.7374125129       14.5012726462       10.7094073253
  H         4.5009429937       14.2405056903        9.2597903120
  H         5.2993511052       12.8816087959       10.1973385285
  H        21.8229745413       17.5671094140       13.3401051813
  H        21.8938268788       18.3823697702       14.7777296103
  H        23.0442177179       17.0462418440       14.4453801270
  C        11.2583210079        9.0089415086       22.3607279591
  N        11.7645702865        7.7282471558       22.4644670905
  O        12.8738330374        6.1154810919       21.3277127041
  S        10.2591133926        9.7147026167       23.7320094177
  C        11.6787315302        6.8113371143       23.6390934621
  H        11.5475432419        5.7538770155       23.3001511678
  H        10.8012766515        6.9864845275       24.3107649653
  C        12.9729807038        6.9121513708       24.3711766620
  H        13.5836068763        7.7882885749       24.0227464502
  H        13.4797613394        5.9668156662       24.2383629632
  H        12.8648463523        7.0016554926       25.4715661865
