352
 i =    24400, time =    24400.000, E =        25.2739424850
  H        11.2421442612        6.7296826580       33.6700096307
  C        11.1086034989        6.0024888173       32.9688116598
  H        12.0947759843        5.7217228571       32.6313386044
  C        10.3375978969        6.2387699360       31.6841595230
  C        10.7491657531        4.7580041758       33.7540947613
  C        10.9490312179        5.6453866133       30.3788769671
  H         9.2445130062        5.9446878334       31.7838353215
  H        10.3784314802        7.3215034541       31.5025539160
  H        11.6919398885        4.2679469348       33.8993064599
  H        10.1083932424        5.0865744178       34.5666199956
  H        10.0297964742        4.1322180595       33.1972834637
  C         9.9985426127        5.4695972804       29.1733235391
  H        11.2384129430        4.7059668991       30.8177293660
  H        11.9232703374        6.1319757628       30.1186169897
  C        10.6901430364        5.0190686083       27.9242131619
  H         9.1542622339        4.7375471980       29.3685162829
  H         9.6177621964        6.5015416717       29.0111375200
  C         9.7729827844        4.8011253769       26.7321882124
  H        11.4181386782        4.1749942499       28.1509873324
  H        11.4393197758        5.8365995984       27.5933397370
  C         8.5689131392        5.6508650792       26.3735590106
  H        10.4992674249        4.9947641316       25.9204982875
  H         9.4302378870        3.7731399481       26.8168200968
  C         7.3848923445        4.9146521524       25.6867616688
  H         8.3321536460        6.2315871396       27.2454384421
  H         8.8813695546        6.4865051344       25.7341516037
  C         7.0157683280        3.5429239239       26.3126874315
  C         7.8007753704        4.2335820666       24.4201428102
  C         6.1078144327        5.7772704939       25.4487719578
  C         7.2329599131        2.4706305245       25.4957360533
  C         6.4842514359        3.2064876974       27.5865199229
  C         7.7445088189        2.8888475121       24.3031577893
  C         8.2289607993        4.8847899113       23.3311691652
  H         6.3123245731        6.4357706437       24.6027512814
  H         5.8984712709        6.3395224416       26.3370522907
  C         4.8521207636        5.0576877846       25.0082087721
  S         6.9392830260        1.0363331736       26.3839174673
  C         6.2375717349        1.8489647440       27.7115902924
  H         6.2427762714        4.0736041965       28.2807284665
  C         8.2137588975        2.3254490752       23.1867081766
  H         8.2804699033        5.9484168783       23.3983795324
  C         8.6990328274        4.3293886617       22.1225247694
  H         4.9824906855        4.8034409883       23.9494714867
  H         4.6167830939        4.1640627082       25.5433065107
  C         3.6049462943        5.9607162816       25.2279278048
  C         5.7259893041        1.1439913812       28.9215168007
  C         8.6625116946        2.9749153786       21.9878160335
  H         8.3393878630        1.2891074917       23.1251887141
  C         9.1216108098        4.7950651085       20.8920288498
  H         2.8004720357        5.7014183076       24.5377422477
  H         3.8376019952        7.0104222507       25.0237206571
  C         3.0991315120        5.8314414761       26.7197515871
  C         5.7576201039       -0.2588514069       29.2245457149
  C         5.2368510829        1.9746565247       30.0393870976
  C         9.0632938621        2.2765265301       20.8037442120
  C         9.3441178614        3.6630551901       20.0963598397
  S         9.3113018794        6.2785480649       20.1492882925
  H         2.5127010650        6.6666042292       27.0443135659
  H         3.9873926438        5.8071520747       27.3913426703
  C         2.2675238222        4.5824768111       26.9870087441
  N         6.0670546117       -1.2632388736       28.2509831196
  C         5.4336327074       -0.8181740373       30.4465222274
  C         4.9288878779        1.4550816304       31.3021547722
  H         4.9851740947        3.0727157516       29.9673306619
  C         7.8855113735        1.4879599084       20.2502525187
  C        10.3486585683        1.4826903787       20.9376454957
  C         9.6224153213        4.1149514878       18.8020750148
  C         9.6875724243        5.4794458756       18.6924814511
  H         1.5374927241        4.3153129286       26.1643787914
  H         2.9913751311        3.8381947749       27.1735114723
  C         1.5132520562        4.6269104599       28.3822148119
  S         5.9420742804       -2.7639431231       28.9808505824
  N         5.6110251079       -2.2080460119       30.4979709781
  C         5.1555165107       -0.0017645531       31.5623819893
  H         4.6493652233        2.0653760640       32.0889688943
  H         7.5065983358        0.6896517992       20.8569077501
  H         8.2641980188        1.0335135434       19.3907081041
  C         6.7323280419        2.3011201140       19.7449896360
  H        10.5353162535        0.9051073708       20.0332849289
  H        10.1620278411        0.7272893087       21.7082129887
  C        11.6100153197        2.2676877705       21.2581965175
  H         9.7848326373        3.3881509162       17.9816328863
  C        10.0172639461        6.2612279937       17.4297683978
  H         1.0623047233        3.6788860764       28.5606485794
  H         0.6054329143        5.2323083905       28.1844699393
  C         2.2169496295        5.3241314472       29.5227000602
  C         4.8921695679       -0.5262801731       32.8501656842
  H         7.0686204958        2.8403727389       18.8858363206
  H         6.3961929488        3.1317422159       20.3516054714
  C         5.6413357385        1.3511026010       19.2735976821
  H        11.5851333843        2.6253509666       22.2655910365
  H        11.7708605454        3.1175878579       20.6025213960
  C        12.9428640558        1.5347427707       21.0294349303
  C        10.0558943670        7.6508318140       17.2666043411
  C        10.3388324439        5.5088011090       16.1837213062
  H         3.2736298728        5.0836207470       29.5634814064
  H         2.2315840050        6.4272887275       29.4082760099
  C         1.7298637516        4.9942701025       30.8957305112
  H         4.9711999524       -1.5727494772       32.7382586860
  C         4.5102877151       -0.0886097014       34.0732583354
  H         5.2480517389        0.8032792889       20.1864972039
  H         6.1544200715        0.5025949097       18.7188298493
  C         4.6053530333        2.0913699720       18.4936928313
  H        13.0521252254        0.7095376041       21.7159760307
  H        13.0522955833        0.9367139075       20.0998244892
  C        14.1882093990        2.4832811262       21.0364849535
  N         9.7885149112        8.5882722980       18.3297829603
  C        10.4000234416        8.3163401909       16.0931400966
  C        10.5193460420        6.1383173087       14.9840123677
  H        10.4663993068        4.4405002421       16.2493520368
  H         2.3819849182        5.5938840038       31.6068101795
  H         0.7228509777        5.0739360802       31.0586977009
  H         1.9344649897        3.9477781198       31.0630030395
  S         4.2737210415        1.5160020699       34.5396127965
  C         4.4775234842       -1.0769657618       35.1425334074
  H         4.6662256192        3.0621785014       19.0167219002
  H         4.8902963914        2.2765111173       17.4566912126
  C         3.2772924570        1.3957369988       18.5131484816
  H        14.0918901997        3.4252047406       20.4565692044
  H        15.0564650811        2.0615424455       20.5261857853
  C        14.5767550361        2.8171985096       22.4934902907
  S         9.7716224280       10.1330882356       17.7579226142
  N        10.4631716111        9.6985202698       16.3028886310
  C        10.7189453962        7.5900703588       14.9097586947
  H        10.7065914092        5.5125433694       14.1685805147
  C         4.1979732921        0.8554747807       36.1772013255
  N         4.2072738932       -0.4940376773       36.3144923942
  O         4.6214497230       -2.2725546470       34.9296149835
  H         2.5436664341        2.0831187606       18.1119292227
  H         2.9919801980        1.1753833914       19.5071607427
  C         3.1733521318        0.1181069891       17.6778773178
  H        15.2585534882        3.6764365713       22.4858536775
  H        13.7245151440        3.1126317854       23.1011843160
  C        15.3208076337        1.6284824705       23.1261433770
  C        11.0536598328        8.3551717597       13.8218132585
  S         3.8044877278        1.7659115676       37.5502283206
  C         4.1905424093       -1.3264224276       37.5585275791
  H         3.4222070641        0.3329889675       16.6441925032
  H         3.8492477776       -0.6588642907       18.0581243836
  C         1.8073362429       -0.6322409409       17.7165418734
  H        15.4247159690        0.9390149665       22.2698189718
  H        14.6454979079        1.2657221257       23.8713388324
  C        16.6509950646        1.7893915891       23.7501787923
  H        10.9068654918        9.4342205384       13.8597458550
  C        11.5670440514        8.0247545984       12.5799178648
  H         3.5588917303       -0.9354698293       38.4033824259
  H         3.8216731023       -2.3396158500       37.4612665245
  C         5.6398377642       -1.2308041771       38.1514282530
  H         1.2055419333       -0.4181355450       16.8418978433
  H         1.1652911851       -0.2509250168       18.5618678165
  C         1.9444606917       -2.1431266563       18.0137828370
  H        16.6257280913        2.6153913385       24.4911852104
  H        16.9161992518        0.9487277573       24.3933453965
  C        17.7664388556        1.8735397033       22.7728335636
  S        11.9371285647        6.4297541789       12.0203465434
  C        11.7202408262        9.0545718498       11.5431988238
  H         6.2527028185       -2.1090661866       38.0893410461
  H         6.3498033204       -0.5561783100       37.7030684850
  H         5.6743303624       -0.8020327114       39.1173322707
  H         2.5329839732       -2.6190548670       17.3032552640
  H         0.9997890040       -2.5293471826       18.2369884130
  H         2.4507520261       -2.2304810420       19.0123788820
  H        18.6852882717        1.7520855706       23.3626362506
  H        17.8998066884        2.8046832184       22.1843075860
  H        17.7408892098        1.1294399555       21.9200617105
  C        12.4210709229        7.1762923736       10.4876331620
  N        12.2170511838        8.5065712023       10.4035248651
  O        11.3512648903       10.1883665086       11.7083298403
  S        12.6858377837        6.2405379107        8.9110634347
  C        12.2006818209        9.2064781962        9.1090681808
  H        12.6284546472       10.1623808175        9.2141514096
  H        12.8442841749        8.7389297482        8.4054166690
  C        10.7722380224        9.3715640002        8.5723464937
  H        10.7297340129        8.9427274205        7.5761211780
  H         9.9633432780        9.0176728480        9.1726876522
  H        10.7104489115       10.4489136730        8.3776975563
  H        21.0236558847       11.0113079808        3.2219145246
  C        21.7151151420       10.1808232726        3.1217815074
  H        21.1693395676        9.2385602018        3.2049023261
  C        22.7333460709       10.3055218726        4.3212824047
  C        22.3033683280       10.1919936302        1.6814827765
  C        21.9404345550       10.5130108502        5.7387871355
  H        23.3969229756        9.4170307579        4.2865009980
  H        23.4059808778       11.1428546889        4.0975839059
  H        21.3930332624       10.0998869652        0.9669234954
  H        22.9792465861        9.3654497476        1.3532233172
  H        22.7514863414       11.1355759302        1.4410459665
  C        21.1353171615        9.2945309125        6.1355253462
  H        22.7265721041       10.6402389852        6.4969143699
  H        21.3948910443       11.4804282329        5.6296788482
  C        20.4585069962        9.4599762736        7.4950052061
  H        21.8155911448        8.5118827497        6.2800287614
  H        20.3403470230        9.0320805513        5.3759854155
  C        19.1692079766       10.3242807160        7.3314452649
  H        21.1488760471        9.9339695511        8.2092126189
  H        20.2990575769        8.4501311692        7.8941352079
  C        17.8595602538        9.5585762541        7.0171364641
  H        19.1238348807       10.9497132352        8.2461366333
  H        19.3325917542       11.1037210464        6.6125230491
  C        16.6468140457       10.5243140179        7.0063196093
  H        17.6942719317        8.7538026920        7.7858390293
  H        17.8546044909        9.0729141323        6.0689502716
  C        17.0072057239       11.8627266986        6.2941662374
  C        16.4644708570       11.2251679419        8.3201833299
  C        15.4144434468        9.9076736124        6.2932130526
  C        17.0103921672       12.9483492938        7.1814157586
  C        17.3160270576       12.2420642019        5.0238414419
  C        16.5441871811       12.5294737588        8.3937174711
  C        16.0253993258       10.5734312957        9.4468068167
  H        15.7130729599        9.7934621167        5.1668415015
  H        15.2022206212        8.9414521839        6.7946452806
  C        14.1607916610       10.7943819162        6.4477205278
  S        17.4310252070       14.4071413896        6.4935645014
  C        17.6471620300       13.5925291393        4.9610637803
  H        17.3394832881       11.4812147221        4.2409105720
  C        16.2346288916       13.1740995430        9.5696726383
  H        15.8337845908        9.5197141688        9.3338572511
  C        15.7160359074       11.2252575854       10.6040726289
  H        14.4464154013       11.7484285603        6.0513541997
  H        13.9571332843       10.9419235856        7.5160771959
  C        12.8079190422       10.3810187370        5.7179383954
  C        18.0346855941       14.2569748712        3.7063443379
  C        15.7444955729       12.5485996182       10.6762878128
  H        16.5139795934       14.2267887547        9.6166139969
  C        15.2620090163       10.8756748468       11.8534435314
  H        11.9055551931       10.8954322575        6.0745037965
  H        12.7143599314        9.2919289764        5.8992385561
  C        13.0013078713       10.5052909247        4.2480082932
  C        18.0135442288       15.6485654246        3.4246608369
  C        18.4705648324       13.4831703258        2.5346899754
  C        15.3126274671       13.2916651802       11.8620162920
  C        15.0484401982       11.9230917406       12.6949140434
  S        14.8055906742        9.2913893693       12.5450619800
  H        13.8096324761        9.7759403533        4.1377239844
  H        13.3249387013       11.5485315751        4.0570646697
  C        11.8075504095       10.2153178991        3.2889657910
  N        17.6231901395       16.6604042733        4.3571213864
  C        18.3815208904       16.2113169388        2.1906667092
  C        18.8896737444       13.9699324622        1.3465820733
  H        18.4975963882       12.4714725294        2.6072924805
  C        14.0433385635       14.1166606234       11.5715826090
  C        16.4265966752       14.0869963275       12.6631427581
  C        14.5803538024       11.5074517366       13.9380162756
  C        14.3582505353       10.1337847492       13.9869675192
  H        11.3385458896        9.2565748970        3.5638790555
  H        11.1600485261       11.1580015004        3.4175742340
  C        12.3199475779       10.2104937252        1.8852898942
  S        17.9515320122       18.1185252739        3.7983632978
  N        18.3406990386       17.6182991608        2.2770907766
  C        18.7833431587       15.3985036002        1.0450017566
  H        19.1833532140       13.2866129055        0.5335946811
  H        14.2239869757       14.9492250883       10.8419098093
  H        13.6167035551       14.6215298055       12.4854824936
  C        12.8728636542       13.3184140174       11.0914688384
  H        16.9542629632       14.8163279847       12.0229446428
  H        15.9645818800       14.7826271931       13.3600625530
  C        17.4851129474       13.1738844007       13.3318202309
  H        14.4037800134       12.1775995531       14.7606516428
  C        14.0664364459        9.3631137800       15.2786019816
  H        13.0931086796       10.9337162598        1.7188355087
  H        11.4838352124       10.5461258462        1.3098351567
  C        12.8413734616        8.8732825124        1.3147562697
  C        19.1909867301       16.0703589670       -0.1421857606
  H        13.0471367076       12.8340405362       10.1535161378
  H        12.7264926125       12.5538302493       11.8570077019
  C        11.5754544039       14.1614339446       10.9878817270
  H        17.7544975058       12.3972696947       12.6503231275
  H        16.9981887108       12.7476347825       14.1971136692
  C        18.7057532066       13.9906936161       13.7100904446
  C        13.9894874194        7.9980183774       15.3952695310
  C        13.8193692242       10.1980286951       16.4674616382
  H        13.5453798431        8.5134205720        2.0397595573
  H        12.0575048197        8.0790188256        1.3654496676
  C        13.5365533217        8.9278381037       -0.1007067312
  H        19.1294261615       17.1747638568        0.0455778786
  C        19.4082127359       15.6363453192       -1.4058146124
  H        11.8534692550       15.1029720644       10.5439548075
  H        11.3629577704       14.4340425548       12.0373968750
  C        10.4605134219       13.4018770747       10.3037956271
  H        19.1284840866       14.2931641141       12.7480601512
  H        18.3541352946       14.9520835253       14.0573760486
  C        19.6007462842       13.1306716809       14.6065786515
  N        14.3028281626        7.0256772836       14.4692568860
  C        13.6873915327        7.4505786485       16.6097971425
  C        13.6084937143        9.6382371662       17.7296061024
  H        13.9256468441       11.2202912167       16.3974232567
  H        14.1149007463        9.8688418364       -0.1523559179
  H        12.7535385205        8.8652244496       -0.7899295589
  H        14.2114923870        8.1067274366       -0.1510680234
  S        19.5428585856       13.9927969567       -1.9073295678
  C        19.5516726236       16.6221963194       -2.4841485758
  H        10.5891152727       13.2968532065        9.2477171611
  H        10.3364653917       12.4155425804       10.7515997434
  C         9.0928920358       14.0434073794       10.5300996997
  H        19.6904430907       12.1925764226       14.0465458041
  H        19.1523879517       12.8673456811       15.4936600278
  C        20.9639811005       13.7300868839       14.9646153281
  S        13.9333568872        5.5962056807       15.0512156565
  N        13.4338211060        6.0418384706       16.4952835455
  C        13.4612625631        8.1902751546       17.8177464646
  H        13.5896367117       10.3139400670       18.5865353600
  C        19.7476441495       14.6738304182       -3.5091927954
  N        19.7390732458       16.0004466393       -3.6954132309
  O        19.3745749797       17.8364992418       -2.2739806540
  H         8.6985579868       13.7075526658       11.4888576581
  H         9.1843643862       15.1789043328       10.5227472160
  C         8.0673973385       13.5913875331        9.4854175473
  H        21.2750530381       13.2758514365       15.8439132911
  H        21.6428930877       13.3514121062       14.1278566137
  C        20.9701871414       15.2120179184       15.2242363212
  C        13.2142289052        7.4647421058       19.0024873966
  S        19.9568735212       13.7049595149       -4.9187062680
  C        19.7202426736       16.5641186740       -4.9999073009
  H         8.2539090769       13.8364172104        8.4609686804
  H         8.1645505358       12.4690333356        9.4868789010
  C         6.6005744134       13.9901959232        9.8008460541
  H        21.7485821838       15.3669063832       15.9947650905
  H        19.9225006219       15.4080427179       15.6651150676
  C        21.2402287807       16.0874371255       14.0579307351
  H        13.4575036778        6.3897556810       19.0146606907
  C        12.7958632218        7.8899238678       20.2554244644
  H        20.5818937545       16.1812695591       -5.5149843395
  H        20.1819903954       17.5801478543       -4.9437921641
  C        18.2300241931       16.6263157935       -5.5398421883
  H         6.0182974442       14.2347906949        8.8864748934
  H         6.6959997179       14.8957378004       10.3432194065
  C         5.9447912796       13.0408322510       10.7787141135
  H        21.8785862083       15.6314148655       13.2754674109
  H        20.2880755585       16.2327829840       13.5180841440
  C        21.8492932744       17.4431030865       14.3842229077
  S        12.2370556067        9.4249790082       20.7697275080
  C        12.6682985350        6.8812642517       21.3254161073
  H        18.0777730690       17.2276882919       -6.4581756321
  H        17.5431084232       17.1660394558       -4.8358816916
  H        17.8242321674       15.5987319885       -5.7179279711
  H         5.0727316780       12.5937072523       10.2945045773
  H         6.6995930836       12.3788791199       11.2275582533
  H         5.5896501414       13.6102040129       11.6089853368
  H        21.3829299412       17.8937676037       15.2381674538
  H        22.8199616013       17.2753430978       14.6738035248
  H        21.9411551499       18.0869856445       13.4845497715
  C        11.7147472655        8.7144585349       22.2603273105
  N        12.0454229587        7.4161789805       22.3917571859
  O        12.9014664062        5.7253727956       21.1875956463
  S        11.0628100213        9.6362972650       23.6829473736
  C        11.6481286979        6.5814919152       23.5446356641
  H        11.5101137682        5.5491805963       23.1596623343
  H        10.7579063460        7.0171126277       23.9808775440
  C        12.6126370202        6.6023813491       24.6874230106
  H        13.4510428702        7.1521496994       24.3319697237
  H        12.7959384483        5.5737771295       24.9572077239
  H        12.1692624938        7.0126011133       25.5707041530
