352
 i =    60100, time =    60100.000, E =        24.7304504244
  H        10.2526515163        5.1472320896       31.3048622803
  C        10.6526167530        6.0538080320       31.6701212092
  H         9.9186962103        6.8463678269       31.5170024290
  C        11.9027792580        6.3684630320       30.7349636083
  C        10.9842782358        5.9767677823       33.1366901696
  C        11.7675199977        5.6216469672       29.4007971216
  H        11.9362101742        7.4609292853       30.5074066301
  H        12.8694585110        6.0982822337       31.2054199958
  H        10.2484576763        6.4359187720       33.7628720603
  H        11.2097114681        4.9675734297       33.5526536320
  H        11.7225806808        6.7340336360       33.4113777031
  C        10.4687620530        5.9112021342       28.7147569732
  H        11.8274743506        4.5199136552       29.5944246043
  H        12.5799306936        5.9751818111       28.7957626284
  C        10.6605354319        5.7921153849       27.2039548493
  H         9.7076268575        5.2205696801       29.1348828656
  H        10.0152065566        6.8637100431       28.8853132890
  C         9.5832832588        5.0278412306       26.5267080913
  H        11.6386116800        5.2674488363       27.0049405097
  H        10.6958300650        6.7808619801       26.7234409698
  C         8.4435071546        5.8991135806       25.9401224107
  H         9.9711363933        4.3298955079       25.7736246650
  H         9.2071691532        4.2692531179       27.2816969618
  C         7.3445921088        5.0409071175       25.2738112277
  H         7.9780612625        6.5463559982       26.6439931558
  H         9.0131657783        6.5831635162       25.2867576601
  C         6.9981661661        3.7050499636       25.9882666126
  C         7.7398285190        4.2365384148       24.0727973196
  C         6.1473617033        5.8442148405       24.7028975286
  C         7.0065354034        2.5681018961       25.1975493931
  C         6.6591800306        3.3695963490       27.2713875941
  C         7.6005096099        2.8926358592       23.9860685205
  C         8.2629637701        4.8429857256       22.9748564006
  H         5.7720114832        5.0726485935       23.9449460738
  H         6.3550849490        6.7406280562       24.0261531280
  C         5.0720085407        6.2613110697       25.7113981408
  S         6.5648821563        1.0843011257       26.0149629360
  C         6.3630538606        2.0606088094       27.4617463948
  H         6.5566617789        4.2238119824       27.9133506717
  C         7.9986165725        2.2401532825       22.9294327601
  H         8.3961389071        5.8921605286       23.1388033932
  C         8.5812593428        4.1915264827       21.8260968140
  H         5.0258837919        5.6586516310       26.6022071210
  H         5.5626759753        7.2256903038       25.9517378986
  C         3.6475870151        6.4850159293       25.2225981083
  C         5.9933001110        1.3884720793       28.7449548558
  C         8.4975333517        2.8386911547       21.7649069660
  H         7.7953823640        1.1273874045       22.9281203369
  C         9.0568269208        4.5093338973       20.5559921374
  H         3.3708068693        5.5678842204       24.6401826437
  H         3.6564120419        7.3759023961       24.5691821220
  C         2.5900584340        6.6108703268       26.3762129720
  C         5.9170916613       -0.0124100878       29.0444764308
  C         5.7289906664        2.2649533580       29.9079263523
  C         8.8233482737        2.0147652745       20.5377857365
  C         9.0998451830        3.3539435276       19.7530249476
  S         9.2010629711        5.9283562900       19.7377016419
  H         1.8036740102        7.2934038192       26.1780187036
  H         3.2011976836        6.9941380405       27.1729380986
  C         1.9829811628        5.2374605843       26.8565158761
  N         6.3003360736       -1.0380728618       28.1492521736
  C         5.6738882367       -0.4959275947       30.2961073856
  C         5.2853010632        1.7886435944       31.1729043890
  H         5.7682030527        3.2842758409       29.6957369266
  C         7.6351692544        1.2898206575       19.9000292665
  C        10.0692483842        1.1546280271       20.6001284276
  C         9.4487679117        3.7181709623       18.4231110106
  C         9.5547972018        5.0739413866       18.2484476962
  H         1.2882945922        4.8068267481       26.1337988530
  H         2.7832992861        4.4546837298       26.9086381803
  C         1.1839257546        5.4656996890       28.1682891165
  S         6.1993726379       -2.4233338698       28.8340994113
  N         5.8647539171       -1.8801563612       30.3371599963
  C         5.3284469209        0.3345798199       31.3745773548
  H         5.0411898626        2.4138765769       32.0493909750
  H         7.2226440131        0.5601045117       20.5961348358
  H         7.9465401139        0.8460711426       18.9547960375
  C         6.3979677729        2.1662737296       19.5941015511
  H        10.0943745668        0.7243578086       19.6204569354
  H         9.9097998505        0.3412349548       21.3393986026
  C        11.3783848949        1.9091953065       20.8749544293
  H         9.5867275911        3.0296267885       17.5880952789
  C        10.0117156933        5.8069889493       17.0103287563
  H         0.4822270733        4.6290955140       28.4313963329
  H         0.5248040619        6.3290207237       27.9677561793
  C         2.0642259562        5.6004326698       29.4020487936
  C         5.0581210011       -0.3416188697       32.6233525045
  H         6.6109062157        2.9183242789       18.7630579484
  H         5.9055096601        2.6725839263       20.3783128517
  C         5.3729443127        1.2256565285       19.0235209603
  H        11.3054755760        2.5209982066       21.7181517959
  H        11.5991586462        2.4919138055       20.0189866325
  C        12.5561280670        0.9291922041       21.0655295833
  C         9.9683737694        7.2371761774       16.8639929158
  C        10.3913513985        5.0615562815       15.7670970445
  H         2.9599886851        4.9121481699       29.4199241782
  H         2.5932176861        6.5016011338       29.4149536304
  C         1.2791801450        5.5146863821       30.7033947908
  H         4.9892318561       -1.4629572916       32.5770723840
  C         4.7686231643        0.0326801644       33.9136920819
  H         4.9210439998        0.8972595690       19.9558232426
  H         5.6940204156        0.3634404891       18.5442688703
  C         4.3717012611        1.9877103900       18.1833823579
  H        12.4512180490        0.3614538600       22.0124278400
  H        12.7543712587        0.2785520863       20.1990729547
  C        13.8012165574        1.7855625923       21.3274758251
  N         9.5720453857        8.1425372920       17.8509648200
  C        10.3402973934        7.9005373074       15.7057635957
  C        10.6906285417        5.6823942186       14.5791663090
  H        10.5829444756        3.9613449468       15.7970357735
  H         0.5529073713        4.6634721944       30.6781580907
  H         2.0395436961        5.3905912486       31.5131986950
  H         0.7730988934        6.4965063351       30.8239907324
  S         4.6321400686        1.6884818869       34.3971210807
  C         4.5203313605       -1.0075553333       34.9093592221
  H         4.2374817309        2.9492111436       18.6215116574
  H         4.7672540837        2.0195773815       17.1334569329
  C         2.9914262298        1.2704804029       18.2442849795
  H        13.8393216047        2.6940148303       20.7583157553
  H        14.5906579282        1.1956106101       20.9026264829
  C        13.9732940109        2.0545107286       22.7997893534
  S         9.5771873089        9.6426908958       17.2251372935
  N        10.1805829223        9.2632528772       15.7812278279
  C        10.6975045137        7.1785953469       14.5062917380
  H        10.9657324003        5.0290358923       13.7170544407
  C         4.2332171488        0.9703894748       35.9617554611
  N         4.2426886402       -0.4071523824       36.0297944609
  O         4.5962744959       -2.2253711391       34.7286214003
  H         2.3384041643        2.0915385268       18.1157125226
  H         2.7964930776        0.8738531510       19.2718913760
  C         2.7348599884        0.2295638257       17.1839416697
  H        13.2692763567        2.8260828881       23.0261508728
  H        13.7199440868        1.3049118382       23.4782068485
  C        15.2073350921        2.8440319856       23.3045890138
  C        11.0001494248        7.9204367482       13.3153358031
  S         4.1924347590        1.9605144682       37.3591553087
  C         4.3640565790       -1.0898697932       37.3640402750
  H         2.8769021034        0.6752337295       16.1628286454
  H         3.4146914029       -0.5707695260       17.2495078622
  C         1.3360939547       -0.3820679002       17.1970487745
  H        15.0311975306        3.3024333081       24.2949637149
  H        15.4885120905        3.7218002737       22.7314094714
  C        16.4574276102        2.0529107447       23.3123664810
  H        10.7984896764        8.9688534032       13.3436289894
  C        11.6231382900        7.5696199111       12.1250406921
  H         3.7704664092       -0.6111890819       38.0951228614
  H         4.0064291091       -2.1338787636       37.2469762335
  C         5.7989098435       -1.1865353996       37.8938565506
  H         0.7587473644       -0.0612077012       16.3248573567
  H         0.8024492956       -0.0590456468       18.1099830513
  C         1.4326100482       -1.9158787842       17.1541918476
  H        17.0925844414        2.0068285501       24.2513694415
  H        16.0948878327        1.0365390384       23.3474279140
  C        17.4071280690        2.3210067060       22.1756528626
  S        12.2212912513        6.0253181544       11.5883255199
  C        11.6494026392        8.6555713055       11.0677467224
  H         6.1102128544       -0.2696091330       38.4173801129
  H         5.8747498112       -1.9992013962       38.5223343340
  H         6.5298864438       -1.5295041407       37.1582024846
  H         1.6836218432       -2.2581288690       18.1532849543
  H         2.1536836650       -2.3630897609       16.4230014459
  H         0.4192669391       -2.2829946899       17.0937745641
  H        16.8634321455        2.4352020096       21.2146032685
  H        18.1281919075        1.5382662156       22.0216903914
  H        18.0809178400        3.1737564520       22.2862670003
  C        12.5493169562        6.8189781435       10.0554180904
  N        12.1701887598        8.1225193926        9.9206606455
  O        11.3587910150        9.8609876951       11.2387173904
  S        13.1992556857        6.0113496132        8.6615414802
  C        12.3341142925        8.9256402393        8.7292406614
  H        12.3747439239       10.0146386288        8.9170318607
  H        13.1632372008        8.5631870021        8.2349849075
  C        11.1747245424        8.6449174555        7.7665113695
  H        10.1883550376        8.7428345373        8.1872667443
  H        11.2070303600        9.4260254437        7.0336490534
  H        11.3916032428        7.6399783829        7.3983653843
  H        21.5049818828        8.7363485788        3.4161389031
  C        22.2950633467        9.4843049790        3.2873287756
  H        23.0408238476        8.9012070972        2.8383281577
  C        22.7908968372       10.1959466502        4.5092712757
  C        21.8339681723       10.4361348584        2.1382717554
  C        21.7529831015       10.4391415592        5.5535865061
  H        23.5391670618        9.5484715929        4.9026540367
  H        23.1746571373       11.1200578339        4.1769276869
  H        21.1642808049       11.1483909257        2.6617879124
  H        21.2570266371        9.9418013482        1.3557837088
  H        22.6149266716       10.9497801399        1.5570180793
  C        20.9182996068        9.2129269313        5.9492606064
  H        22.3009119617       10.9637905284        6.3254772656
  H        20.9813772792       11.1604588061        5.1337476612
  C        20.2634338317        9.2045476846        7.3499819910
  H        21.6039372496        8.3077924562        5.9940616566
  H        20.1529001934        8.9942915759        5.1547001955
  C        19.0867804102       10.1855600332        7.4839129588
  H        21.0424647429        9.5993956095        8.0388145815
  H        19.9407464779        8.2911628126        7.7604767623
  C        17.7489508848        9.5191349157        7.0261105628
  H        18.8381282238       10.3963990097        8.5381241190
  H        19.3025196315       11.1687874242        7.0102942154
  C        16.5011538966       10.4307148638        6.8430929513
  H        17.6360138375        8.7416205308        7.7509199562
  H        17.8635986530        8.9895464704        6.0853737367
  C        16.9287906742       11.7796844489        6.2751759225
  C        16.0830337155       11.1707158522        8.0591272517
  C        15.4282915149        9.7738257780        5.9889636654
  C        16.6518154512       12.8876759574        7.0397842179
  C        17.3923399105       12.1827292774        5.0520662962
  C        16.1305488525       12.5052389321        8.2510034706
  C        15.5887711915       10.4501549373        9.1523843782
  H        15.8686779120        9.6647197376        5.0278587982
  H        15.1834865417        8.7387888096        6.4233461367
  C        14.1106147762       10.5214074861        5.8413948152
  S        17.1393924559       14.3736000611        6.3288968589
  C        17.4884681473       13.5442030988        4.8368452237
  H        17.6584483078       11.4867679721        4.3367963089
  C        15.7064523583       13.0244734805        9.4642252031
  H        15.4274078934        9.3953583143        8.9902081903
  C        15.1971567509       10.9882030239       10.3554721452
  H        14.2789421375       11.5303501439        5.5097394963
  H        13.5378410443       10.7031333033        6.7776562819
  C        13.0549130665        9.8478981660        4.8966848122
  C        17.9033040961       14.2456445467        3.5556259188
  C        15.3168163231       12.3126362384       10.5505972085
  H        15.8508951182       14.1139322027        9.5894734501
  C        14.7909908074       10.5994388118       11.6304352081
  H        12.1255823514       10.3601656097        4.8612640411
  H        12.8508337180        8.8288707724        5.2653719403
  C        13.6381290799        9.6092840445        3.4737480596
  C        17.8562553725       15.6243305699        3.4115737983
  C        18.2921417255       13.4646727836        2.3090855304
  C        15.0659032325       13.0258015852       11.8424792756
  C        14.7516303022       11.6998879587       12.5388927544
  S        14.4224220233        9.0822672711       12.3570899387
  H        14.3823545366        8.8178564093        3.4679195680
  H        14.2055769678       10.4683034176        3.1807213380
  C        12.5511182096        9.1947682375        2.4417492366
  N        17.5505103131       16.6108444668        4.3864144772
  C        18.1089634004       16.2050147321        2.1605477690
  C        18.5760688271       14.0184128436        1.0563922018
  H        18.3575737664       12.3957754810        2.3509980633
  C        13.7238530087       13.8226375896       11.8398386033
  C        16.2049070531       13.8391461614       12.5489476702
  C        14.2766191897       11.2806395888       13.7830074206
  C        14.1625905469        9.9341480308       13.8679193146
  H        11.8028528031        8.5444698079        2.7808790244
  H        11.9705265085       10.0778880195        2.2007207143
  C        13.1676117513        8.5376749364        1.1455874925
  S        17.4631799965       17.9927559271        3.6188819173
  N        17.9215469480       17.5498280399        2.0994447791
  C        18.4820130888       15.5001313449        0.9305424046
  H        18.8957559311       13.3050874281        0.2968592631
  H        13.6909045042       14.6321414645       11.0168987197
  H        13.6019153656       14.2632991353       12.8644636470
  C        12.4909389755       12.9571972913       11.4756979549
  H        16.6560303017       14.4326007045       11.7227913706
  H        15.8640095162       14.5456529697       13.2453431587
  C        17.3765020829       12.9401273109       13.0133094987
  H        14.3784747885       11.9920493322       14.5662424784
  C        13.8870313166        9.1425497693       15.1246105423
  H        12.2885051717        8.0369833221        0.7364539676
  H        13.7796987924        7.7621359409        1.3364320470
  C        13.7735511958        9.5873779560        0.1431165619
  C        18.8096807918       16.2476473672       -0.2490812264
  H        12.6906373855       12.5851340293       10.4922870995
  H        12.1967255674       12.1534084070       12.1286796950
  C        11.2544122310       13.8005388887       11.3452535252
  H        17.5999699001       12.2067463148       12.2185921840
  H        16.9447252227       12.3613697360       13.8595019604
  C        18.5206542295       13.8452655382       13.5639425719
  C        13.7876627798        7.7479919543       15.3283722054
  C        13.3483379557        9.9246194355       16.3269683659
  H        14.3220449085       10.3288279426        0.6562269218
  H        14.6344409926        9.0486988762       -0.3792229377
  C        12.9144915866       10.1649268234       -0.9548910272
  H        18.6740154269       17.3172803570       -0.1772190664
  C        19.2945305671       15.8743754116       -1.4582687369
  H        11.5172110043       14.6420303606       10.7128549616
  H        11.0784016593       14.2136028106       12.3738935043
  C         9.9797552594       13.1270277714       10.9287207730
  H        18.7435098816       14.6137298068       12.8546699264
  H        18.2332335037       14.2283699614       14.5159811259
  C        19.7829063370       12.9707588966       13.8353861213
  N        14.0554614513        6.7381522064       14.3352959680
  C        13.5643534804        7.1224092581       16.5654742261
  C        13.0961947869        9.3248668123       17.5344069644
  H        13.2785243860       11.0223693786       16.1312399686
  H        13.4776404307       10.7851140771       -1.5627730459
  H        12.1459786446       10.7551790952       -0.4497338326
  H        12.4665401355        9.4250169285       -1.5609345385
  S        19.7107302777       14.2949832508       -2.0288783153
  C        19.2231106730       16.9130489871       -2.5226780003
  H        10.0545568214       12.0841431605       10.8232229986
  H         9.3116965298       13.4029617592       11.7350365389
  C         9.4362979587       13.6782101460        9.6109189485
  H        19.7856376969       12.3469678683       12.9591738619
  H        19.6522488288       12.3413058472       14.7216039449
  C        21.0877109003       13.7668781748       13.8351543982
  S        14.0842072259        5.2723401908       14.9960443486
  N        13.7158121774        5.7235525983       16.5138271381
  C        13.2059493328        7.8863705845       17.7281190825
  H        12.8775923660       10.0252834704       18.3511642534
  C        19.8554753548       15.0771538453       -3.6421959484
  N        19.5718406590       16.3729548765       -3.7041397316
  O        18.8773500160       18.0905369303       -2.2963994053
  H         9.0480913303       14.7082806691        9.8125916126
  H        10.2339553252       13.9162625521        8.9174978390
  C         8.4487844047       12.7038848166        8.9777351027
  H        21.8546361692       13.0343570320       14.0499495791
  H        21.3497763268       14.2695779831       12.9089817926
  C        21.1199674147       14.8098111138       14.9196792491
  C        12.7619213276        7.1780800258       18.9091550466
  S        20.3189749373       14.2170660241       -5.0956366591
  C        19.4147529124       17.1060294970       -4.9634892875
  H         9.0530767924       12.2592927739        8.2109139746
  H         8.1137951207       11.8780877647        9.7317288568
  C         7.2319640078       13.4723453255        8.4220143099
  H        21.5835172213       14.3576098130       15.7898055730
  H        20.1272182347       15.0813945688       15.3773265513
  C        21.7351067059       16.1406861573       14.5580050497
  H        13.0563034860        6.1380312592       18.8649520364
  C        12.2857477133        7.4959709525       20.1019134371
  H        19.9945986120       16.6873063170       -5.8071665353
  H        19.7130368331       18.1247214477       -4.7625976481
  C        17.9520054786       17.3489827293       -5.3142835675
  H         6.8164588495       12.9545814220        7.6363060283
  H         7.4866335465       14.3730779159        7.9089517664
  C         6.2479120791       13.7698760225        9.4875576312
  H        21.7648810976       16.7675751082       15.4660515184
  H        22.6720368809       15.9365037004       14.1239229439
  C        20.9770716067       16.9454537747       13.5242374287
  S        11.7082615148        9.0167103841       20.5701720733
  C        12.2038133413        6.4135809873       21.1125618206
  H        17.7807077693       16.5645827126       -6.0878052629
  H        17.9130567100       18.3464351824       -5.7260100970
  H        17.2433466951       17.2330837109       -4.5162626924
  H         5.9139790107       12.9464208068        9.9825682322
  H         6.8413185225       14.2945388234       10.2641093860
  H         5.5305773691       14.4376697999        9.1364952977
  H        20.3423151512       17.6198428247       14.0433480093
  H        21.5882529353       17.5863746739       12.9556539934
  H        20.4194658744       16.3917502263       12.7794925184
  C        11.6449329972        8.3138607999       22.1825675760
  N        11.8038811677        6.9708652902       22.2515144518
  O        12.5569988692        5.2360572946       21.0371290569
  S        11.3129598132        9.1846587955       23.6842658445
  C        11.9362872227        6.2625089530       23.5090756944
  H        11.7876156159        5.2285041656       23.2379155231
  H        11.0562287416        6.5610415534       24.1472173640
  C        13.3080789417        6.5298935041       24.2299639332
  H        13.3614875276        6.1880685630       25.2677514272
  H        13.7044799089        7.5756300144       24.1660919389
  H        14.1456753145        5.9863962961       23.7521386712
