352
 i =    68200, time =    68200.000, E =        25.2251080433
  H        10.9990841098        4.7968016693       31.5731151107
  C        10.6963140495        5.8075839843       31.8662826395
  H         9.5997282591        5.7281972609       31.7843444670
  C        11.1350263502        6.8098096577       30.8178291686
  C        11.1290541206        6.0499380049       33.3087797545
  C        12.1265540560        6.1692230046       29.8694518849
  H        10.3130004912        7.1945650446       30.3173684726
  H        11.5425186900        7.6606017930       31.3162523712
  H        10.4867251314        5.4346772251       33.9623123905
  H        12.1582468326        5.6500432034       33.4526689770
  H        11.1526357124        7.0963420557       33.6386021054
  C        11.4891883448        5.3215962852       28.7723382921
  H        12.7266659327        5.4392544355       30.4610177082
  H        12.8490601565        6.9430064306       29.4511943182
  C        10.6412861317        5.9926149744       27.6866847569
  H        12.3161895775        4.7174852541       28.2866832489
  H        10.8510912657        4.5792007189       29.1521102635
  C         9.7937269688        5.1602775164       26.7293033146
  H        11.3290469514        6.5937210983       27.1022375720
  H         9.9408059011        6.6967060226       28.1423091953
  C         8.6122834854        5.8705081619       26.1726182957
  H        10.3820788860        4.8128437736       25.9864589232
  H         9.4557816040        4.2326220913       27.2018405714
  C         7.5044600142        5.0448765019       25.4389436757
  H         8.1442500602        6.4621061794       27.0136402159
  H         8.9961068995        6.6340171049       25.5391634878
  C         7.1182566731        3.6576804811       26.1501535813
  C         7.8776701815        4.2607245951       24.2452149693
  C         6.2978939658        5.9263624599       25.0840649007
  C         7.1309997507        2.5839491918       25.2939133326
  C         6.6760392606        3.2544686913       27.4224037793
  C         7.6419304959        2.9572893603       24.0630158120
  C         8.2538010812        4.9336616248       23.1143654577
  H         5.8953547024        5.5470990917       24.1302313151
  H         6.4728776609        6.8597813646       24.6869927973
  C         5.1908264835        6.0611621912       26.2083750195
  S         6.5847470459        1.0523302745       25.9682595574
  C         6.3439772171        1.9124254248       27.5099755806
  H         6.7352876963        3.8142566307       28.2660137624
  C         7.8414025148        2.4111859977       22.8421502758
  H         8.5283521601        5.9475124276       23.3107124357
  C         8.4187059281        4.4350869157       21.8810754124
  H         4.9787040593        5.0534093145       26.6986358525
  H         5.5037543800        6.8637650328       26.9589070060
  C         3.7777029597        6.4625396266       25.6533984701
  C         5.9575200689        1.2179229783       28.8407836655
  C         8.2741973387        3.1032519734       21.6965144474
  H         7.5243742832        1.3157639690       22.7509555893
  C         8.8135328245        4.8620604664       20.6306081898
  H         3.5211860430        5.7296075191       24.8802241747
  H         3.7997975713        7.4285925469       25.1066405044
  C         2.6237370417        6.4590907234       26.6834719212
  C         6.2010206567       -0.1825201111       29.0799662683
  C         5.5012375825        2.1051851858       29.9302177107
  C         8.6102531949        2.4437802042       20.3807161208
  C         8.8904772357        3.8360080364       19.7331347410
  S         9.2635396063        6.4020568050       19.8737106141
  H         1.7494959674        6.8307570403       26.2222312482
  H         3.0226014298        6.9625909045       27.6158368262
  C         2.1713556315        5.0617402060       27.1466088595
  N         6.5668689127       -1.0756482425       28.0723626819
  C         6.0851143210       -0.7878416818       30.2709535808
  C         5.3623139419        1.4707760278       31.1451039738
  H         5.3021552927        3.1402832239       29.7129551795
  C         7.3895522549        1.7181010214       19.6259069406
  C         9.8639329062        1.5402738792       20.5779962812
  C         9.3104034667        4.3171342468       18.4807632287
  C         9.6844204938        5.5818328921       18.4656199796
  H         1.5779372961        4.5833452711       26.3718122205
  H         3.1704514031        4.5400355582       27.1225204370
  C         1.7655567586        5.0831104295       28.5865035284
  S         6.7506870803       -2.5296678334       28.6759567778
  N         6.3009017480       -2.1824464635       30.2464153483
  C         5.6144016916        0.0117607634       31.3608754986
  H         5.1521556268        2.0663722054       32.0389443783
  H         7.2620393337        0.6637615195       20.0965399842
  H         7.6834400465        1.6280155555       18.5872125210
  C         6.1036025545        2.4803122982       19.7590537897
  H        10.1592506648        0.9004485352       19.7763403924
  H         9.6983810757        0.8557240918       21.4235715981
  C        11.1436484668        2.4309874887       20.9299036110
  H         9.4353947927        3.5635453735       17.7484668240
  C        10.1217162950        6.2600206974       17.2380255794
  H         1.0423570151        4.3281006977       28.7459313795
  H         1.2216281073        6.0056906503       28.9354552520
  C         2.9735181533        5.0384448536       29.4765872894
  C         5.4422018053       -0.6215789905       32.6576220172
  H         6.3742814781        3.4336541175       19.2821779385
  H         5.9086438543        2.7550941927       20.8528106211
  C         4.8430279265        1.7770955547       19.1196749532
  H        10.9141302880        3.0931464973       21.7361842739
  H        11.4550033328        3.1747145606       20.1376171651
  C        12.3660964775        1.6817451117       21.4424139116
  C        10.2092337733        7.6777075254       17.0881508747
  C        10.4662710239        5.5005202608       16.0730581655
  H         3.5004027596        4.0611622592       29.3924770078
  H         3.6236473202        5.7834259841       29.1429394526
  C         2.4837385150        5.0755847689       30.9247841023
  H         5.6854523279       -1.7195851684       32.5486650690
  C         5.0790043626       -0.1795284062       33.9086217278
  H         3.9770536017        2.4885779267       19.2769440871
  H         4.5912231189        0.9111607368       19.8243563611
  C         5.0445137746        1.3367988374       17.6548698313
  H        12.2716459643        1.1585178164       22.3750382255
  H        12.5903386923        0.9274362315       20.6858727014
  C        13.4963166237        2.6459223643       21.8379962341
  N         9.8868291430        8.6059498026       18.1276315414
  C        10.5455690160        8.2652835491       15.9035718246
  C        10.8987316895        6.1143595464       14.8960425197
  H        10.4222222517        4.4303318348       16.0675687367
  H         1.9621302104        6.0001281971       31.1524157265
  H         2.0755809364        4.1791048657       31.3755127128
  H         3.4784693106        5.1926084508       31.4332857880
  S         4.8675769923        1.4361186208       34.4804475907
  C         4.7650154703       -1.2548979902       34.9091175652
  H         5.6331773631        2.0287211749       17.0422612562
  H         5.6692472711        0.4508160007       17.5939973673
  C         3.6778781487        1.1376182909       16.9365914348
  H        13.2439983610        3.4585231024       22.4917568934
  H        14.0267426677        2.9544352137       20.9534476189
  C        14.5439952686        1.8342862896       22.5723667387
  S         9.8825979335       10.1251523406       17.5171275686
  N        10.4524508095        9.6702790698       16.0554059733
  C        10.9305050399        7.5728715777       14.7388176228
  H        11.2846591573        5.4594914700       14.0590388767
  C         4.5316547428        0.7310265717       36.0109466262
  N         4.4407390454       -0.6478625457       36.0163195035
  O         4.6636575248       -2.4349052900       34.6106223243
  H         3.8446931620        1.0489832659       15.8261676534
  H         3.2030138295        2.0781485876       17.0652901707
  C         2.8474697532       -0.0835909753       17.3942875049
  H        14.1119159173        1.1839867175       23.3411808897
  H        15.0978695432        1.1955174139       21.8781663501
  C        15.5615656764        2.7820668410       23.2353303330
  C        11.2688259230        8.2672131019       13.5202661999
  S         4.1158840162        1.5779506757       37.4910791134
  C         4.2024274994       -1.4130465961       37.1691699111
  H         2.1754256720        0.1738223290       18.1784532860
  H         2.1491298276       -0.2179547768       16.5424342423
  C         3.6036948295       -1.3596212828       17.9021899499
  H        15.0295913675        3.1489260289       24.1338218190
  H        15.5706219539        3.6557309516       22.5427309151
  C        16.9512481270        2.1830171190       23.5521576443
  H        10.8150659976        9.2379189816       13.5673675875
  C        11.8599063880        8.0078451163       12.2927647251
  H         3.3387432874       -1.0054707309       37.7083462328
  H         3.9743661706       -2.4529460071       36.9704903345
  C         5.4771035567       -1.4814957214       38.0162632031
  H         3.6260807715       -1.3430632660       18.9813969646
  H         4.5664273774       -1.4535751286       17.5569840991
  C         2.9494692214       -2.5529393825       17.2955273361
  H        17.3842355032        2.6193361283       24.4926316526
  H        16.8834408737        1.1142782685       23.7308795354
  C        17.9368504184        2.4561441267       22.4286938513
  S        12.5830356182        6.4478737985       11.7564393804
  C        11.7208550861        9.0550200937       11.2975126204
  H         5.3662741661       -1.8356372709       39.0179007339
  H         6.2665265282       -2.0938619454       37.5840864120
  H         5.8701239941       -0.5194145769       38.2091545057
  H         2.6698902461       -2.4048403806       16.2260802786
  H         1.9987315697       -2.7936430342       17.8309983849
  H         3.7092256937       -3.2878989349       17.4110345821
  H        17.6723381290        3.4240312570       21.9722881406
  H        17.8483010180        1.7662866092       21.5970098032
  H        18.9528487653        2.4325347311       22.7932865614
  C        12.6087737068        7.3324651835       10.1874888635
  N        12.3601786267        8.6622683771       10.1903694786
  O        11.1135880857       10.1103706994       11.5107696580
  S        13.3903355153        6.7174942893        8.7075511990
  C        12.4926909443        9.5152349205        9.0054149807
  H        12.4234229267       10.5651636464        9.3134003945
  H        13.3860799155        9.3392960252        8.4109496674
  C        11.1541487629        9.4114689478        8.2103315047
  H        11.4170722403        8.9275448682        7.2382817185
  H        10.3397257966        8.9521940013        8.7465235153
  H        10.7358205093       10.4609741814        7.9401218795
  H        22.5212229026        8.9868875990        3.3158099110
  C        22.8700241700        9.9488894033        3.4952228391
  H        23.7725334310       10.0939085295        2.8763439304
  C        23.3724355448       10.0685307907        4.9475319303
  C        21.6548141085       10.8645565507        3.2717752800
  C        22.3158161228       10.3500475146        6.0422381018
  H        23.7388521929        9.0776628896        5.2451429146
  H        24.2409976595       10.7271034075        5.1021939652
  H        21.9006674250       11.8213882335        3.6445050447
  H        20.6919926202       10.4489579078        3.7034138289
  H        21.3952873025       11.0011624333        2.1735326322
  C        21.6561796963        9.1173373223        6.6111034646
  H        22.8957865537       10.8304874612        6.8650815305
  H        21.5461088661       11.0302874904        5.7617514899
  C        20.7571224379        9.3432939562        7.8746475500
  H        22.3344099941        8.4071299863        6.9091722048
  H        21.1191453795        8.6068832777        5.7852251996
  C        19.4837827122       10.2773171549        7.7055541175
  H        21.2806049583        9.8404629761        8.6939458490
  H        20.4445579305        8.4247480092        8.3605591697
  C        18.0940529832        9.5234180814        7.4058243658
  H        19.3579816674       11.0807695661        8.4624804790
  H        19.6045962964       10.8159087290        6.7389027907
  C        16.8737548118       10.4910518277        7.1535744328
  H        17.9650202909        8.9478263686        8.2928180780
  H        18.1731541653        8.9318859158        6.5163318500
  C        17.2273637106       11.8325516258        6.5207902446
  C        16.4619048776       11.1455889843        8.3994985308
  C        15.6916122069        9.8725549551        6.4310066157
  C        17.0418878458       12.9262957866        7.3109690703
  C        17.8762969371       12.1864790798        5.3249081351
  C        16.5505173976       12.4791326035        8.5313259478
  C        16.0067009039       10.5057681533        9.5930017704
  H        16.0758335430        9.4233089400        5.5129644392
  H        15.2676437978        8.9998666558        6.9772409601
  C        14.6496117040       10.8193963720        5.7433206585
  S        17.4083751546       14.4577770697        6.5485519204
  C        17.9286259466       13.5467412142        5.1255842428
  H        18.0718236612       11.4348621618        4.6438816265
  C        16.0760049708       13.1251866634        9.6747029895
  H        15.9336998317        9.4492058014        9.6380514493
  C        15.6316974751       11.1316871796       10.7508920288
  H        15.1141603921       11.5477157398        5.0557504208
  H        14.0699804779       11.3079889970        6.5333974464
  C        13.6669902978       10.0298749965        4.9209167665
  C        18.3192210748       14.1995715939        3.8724438884
  C        15.5956204732       12.4618154567       10.8330163777
  H        16.1355955765       14.2208083819        9.6908786135
  C        15.2479250714       10.7901950035       12.0049881879
  H        12.7204671972       10.6290627121        5.0037742227
  H        13.3344726980        9.1599162024        5.4673638575
  C        14.1926600624        9.6025409506        3.5676552647
  C        18.1869141613       15.5928229151        3.6508192612
  C        18.7716719360       13.3739984804        2.7423063309
  C        15.2081318874       13.1991393621       12.0649966344
  C        14.9300771754       11.8765778497       12.7247450409
  S        14.9959356166        9.2457952813       12.7671063410
  H        14.5536103827        8.6577036650        3.6354608384
  H        15.0555825810       10.2766169544        3.4067078238
  C        13.1403918340        9.7458173560        2.4695590681
  N        17.9534782551       16.5919122627        4.6521941146
  C        18.4577794921       16.2180326072        2.4374201135
  C        19.1051902277       14.0080950884        1.5322421890
  H        18.9857634494       12.3619914767        2.8549189993
  C        13.9135040277       13.9839533077       11.8915722826
  C        16.3258698865       14.1401526863       12.6265790060
  C        14.4338418642       11.5190258898       13.9957478027
  C        14.4313971339       10.1584146081       14.1951913531
  H        12.2904482994        9.2055271407        2.7372233106
  H        12.8061687222       10.7872298473        2.3224575118
  C        13.4907514252        9.1268559656        1.1600183305
  S        17.8723526398       18.0542784466        3.9763504829
  N        18.2458000686       17.6358630510        2.4726191544
  C        18.9881291568       15.5042049788        1.3155700096
  H        19.5890909466       13.3914690501        0.7188383456
  H        14.1663463504       14.9958555536       11.5022976526
  H        13.5835877703       14.2282666422       12.8988567072
  C        12.7705075569       13.2628564857       11.0833681969
  H        16.5527557655       14.9917396860       11.9851469065
  H        15.9435632337       14.5741374169       13.5800454091
  C        17.6608250402       13.4614564917       12.9195386685
  H        14.2564114827       12.2901442958       14.7842726689
  C        13.9760100654        9.4858891496       15.3964891538
  H        12.7505450682        8.2942947864        0.9949839227
  H        14.5191063817        8.6676775179        1.1710548079
  C        13.3792378650       10.1948312671        0.0303639754
  C        19.3505288846       16.2553673803        0.1503355782
  H        13.0490623451       13.1161925856       10.0295362890
  H        12.4817803022       12.3229246136       11.3946930409
  C        11.4026805205       13.9482480213       11.1603422176
  H        18.0840441591       13.1452420526       11.9502623265
  H        17.5626031879       12.5057496393       13.4364062741
  C        18.5222671451       14.5052481426       13.6520565131
  C        14.0862988566        8.1277950260       15.6729655070
  C        13.6315525427       10.3118307654       16.5341272493
  H        14.0308490662       10.9960312927        0.3639470849
  H        13.7692834414        9.7253291273       -0.8844415690
  C        11.9026479115       10.5579582963       -0.1956884965
  H        19.2827209437       17.2796594892        0.3302584496
  C        19.6977624190       15.9072405365       -1.1188812898
  H        11.5254541452       14.8423511884       10.4957676067
  H        11.2370284792       14.3718372030       12.1705090064
  C        10.1576887910       13.1650544941       10.6500751144
  H        18.7581506338       15.2934880609       12.9632986554
  H        18.0250456230       15.0324767505       14.4931949390
  C        19.9098749407       14.0100124512       13.9305644324
  N        14.4315792098        7.1606638612       14.7932166389
  C        13.8065573504        7.5859057448       16.8973933044
  C        13.3542273024        9.8136756481       17.8914042323
  H        13.6011530754       11.3793365298       16.3620534096
  H        11.7133526183       10.8421398386       -1.2228959416
  H        11.5347631065       11.3278496635        0.5126113758
  H        11.4184527564        9.5948090447       -0.0863749679
  S        19.7833806920       14.3155894247       -1.7356387206
  C        19.7065989202       17.0004696463       -2.1526837169
  H        10.4820284505       12.4474575239        9.9199365056
  H         9.8564269061       12.5265523690       11.5556974832
  C         9.0669558967       13.9001544088        9.9224380071
  H        20.3420077476       13.6690535854       13.0062893179
  H        19.8158462727       13.0522916810       14.4951502208
  C        20.9073153666       14.9516038484       14.6912740007
  S        14.4857488510        5.6970295230       15.4755787193
  N        13.9811785889        6.1884927642       16.9352979767
  C        13.3802997587        8.3401342658       18.0598665067
  H        13.0085071011       10.5207904693       18.6053068612
  C        20.0172292120       15.1190861700       -3.2962196566
  N        20.0281981393       16.4650854445       -3.3399604765
  O        19.4563761592       18.1767460707       -2.0518118863
  H         8.3701214231       14.1732513196       10.7168890814
  H         9.4565200758       14.7525993209        9.3926620267
  C         8.2502107604       12.9160840898        9.1048759585
  H        20.5354303173       15.1291695867       15.7425469942
  H        21.8746776326       14.4484235708       14.6716208565
  C        21.0238875779       16.3517073463       14.0496897312
  C        13.1489542736        7.6062090557       19.2428289321
  S        20.4000680861       14.3128881421       -4.7624903976
  C        20.1282537392       17.3227507999       -4.5710300432
  H         8.7808628084       12.5139089398        8.2688710238
  H         7.8205262316       12.0552584858        9.6650170938
  C         7.0300573666       13.7121916236        8.5182463256
  H        20.0630960046       16.8656136513       14.0261242042
  H        21.3417148318       16.2993480817       12.9614580320
  C        22.0144827377       17.2455334694       14.8206299896
  H        13.5740782559        6.6102800664       19.3647331115
  C        12.5847573108        8.0599907867       20.4373633626
  H        20.8674345997       16.8215763289       -5.1955064212
  H        20.6287779628       18.2177556257       -4.2608638561
  C        18.6706757089       17.5370783702       -5.0944581638
  H         6.8153323821       13.2544661026        7.5149976200
  H         7.1606360696       14.7950880679        8.4571866935
  C         5.8995932523       13.6441197700        9.4920532303
  H        22.8520759787       16.6613688530       15.2350101328
  H        22.4304180816       18.0052691541       14.1733174410
  C        21.2667269904       17.8815825042       16.0530181109
  S        11.8187496892        9.5915011645       20.8114072833
  C        12.4806891658        7.0475161900       21.5093672706
  H        18.4358012457       16.4968998494       -5.3465041709
  H        18.8527352319       18.1653112680       -5.9077124525
  H        17.8868986874       17.9841760846       -4.4101297085
  H         5.7476250502       12.6368970933        9.9321959963
  H         6.1788401569       14.2983471329       10.2444416029
  H         4.9934163749       14.1700780408        9.2060031167
  H        21.6627115714       17.4535306989       16.9553527646
  H        21.5350546852       19.0044386905       16.2391636204
  H        20.2145144675       17.7878174500       15.9710308207
  C        11.5943517947        8.8607134854       22.4150647866
  N        11.8205571043        7.5591023322       22.5591126418
  O        12.7538409470        5.8638780096       21.4070382929
  S        10.9724796007        9.6836800494       23.7586389787
  C        11.6342935677        6.7296905805       23.7584540952
  H        11.3335450332        5.7901674038       23.2766203739
  H        10.9296429431        7.1279241762       24.4064123993
  C        13.0010517327        6.4726526184       24.3049010481
  H        13.7586625702        7.2520526539       24.0099807065
  H        13.4484342528        5.5685725276       23.9276110503
  H        12.9974840609        6.4243857468       25.3681857906
