352
 i =    44100, time =    44100.000, E =        25.4365394183
  H         9.4547432243        6.6742459763       32.1585135137
  C        10.4502322753        6.3197790184       31.9183202005
  H        11.0491627152        7.1965898979       31.6136559249
  C        10.3402433132        5.3362069157       30.8205749575
  C        11.0704416226        5.6526546142       33.1520056205
  C        10.9100304866        5.8019115729       29.4400668448
  H        10.7108040481        4.3798133735       31.1185400909
  H         9.2179049941        5.2199288634       30.7136300651
  H        12.1772709358        5.5471219123       33.2616842236
  H        10.7670366333        6.2548735294       34.0325966905
  H        10.6105913647        4.6866408491       33.3226705942
  C         9.9412978507        5.4873188295       28.3601515383
  H        11.8541193179        5.4342609283       29.1249186579
  H        11.0132542821        6.8867052062       29.5512942577
  C        10.6564115782        5.2991686974       27.0221830382
  H         9.3825916117        4.5468392695       28.5457235865
  H         9.1554645624        6.2750993096       28.2597603106
  C         9.5709461685        4.8152819645       26.0474264836
  H        11.4356165447        4.5385231640       27.1533053517
  H        11.0602763664        6.2591064830       26.6101462316
  C         8.3875468748        5.7857494869       25.8299447064
  H        10.0224366289        4.5115490490       25.0948615318
  H         9.1943255264        3.9353046535       26.3657767037
  C         7.1174402135        5.0378834536       25.2145285438
  H         7.9991354047        6.3165935283       26.6635109996
  H         8.6571846658        6.5228761778       25.0769143970
  C         6.7818281687        3.6749022885       25.9313953070
  C         7.4485566411        4.3400193043       23.9335389199
  C         5.7798107434        5.8125762952       25.2155752223
  C         7.0924544419        2.6019922968       25.1231064036
  C         6.3299095280        3.2793917869       27.1633029018
  C         7.5331826843        3.0028980860       23.9226522770
  C         7.7576529514        5.0107042669       22.8350181369
  H         5.9052438262        6.8003308183       24.8444748921
  H         5.5982597286        5.7851142076       26.2673849621
  C         4.5782284957        5.1660193725       24.5438988679
  S         6.7349440183        1.0644784522       25.9188126553
  C         6.2890798213        1.9455438664       27.3424672888
  H         6.0652555572        4.1097536049       27.8382710909
  C         7.9771005315        2.3917530714       22.7845772450
  H         7.5432957790        6.0320360899       22.7144764238
  C         8.2252851290        4.4067620245       21.6722528836
  H         4.9373911237        4.9062125047       23.5482903666
  H         4.4465350354        4.1895064653       24.9734507609
  C         3.2743729228        5.8988473342       24.6600211293
  C         5.9145582840        1.2648065744       28.6342728151
  C         8.3073194420        3.0636273679       21.6031525376
  H         7.9421109211        1.3588826024       22.8631878327
  C         8.7117914931        4.8224388661       20.4253581454
  H         2.4947115473        5.4622392967       24.0098251300
  H         3.3680536919        6.8916990126       24.2670906739
  C         2.6666844933        5.9616205251       26.1016259483
  C         5.9615566246       -0.1030022591       28.8764517122
  C         5.6138238092        2.1138791996       29.7795507045
  C         8.7922056431        2.4480583250       20.2954271878
  C         9.0242148776        3.7471057578       19.5879496996
  S         9.0028939307        6.3508858000       19.7190577982
  H         1.6928373983        6.4872956069       25.9347108553
  H         3.1683199989        6.4947420052       26.8356924932
  C         2.3276223423        4.6861912202       26.8637164797
  N         6.3699439234       -1.0629847858       27.9559171473
  C         5.7418061768       -0.6831049039       30.1658825380
  C         5.3374599706        1.5810124612       31.0155959156
  H         5.5332221403        3.1932294885       29.6792894835
  C         7.5858217037        1.7258716771       19.6147031912
  C        10.0205930537        1.4617020045       20.3506029456
  C         9.4437033487        4.1171069514       18.3185418291
  C         9.5106396727        5.4723159678       18.2316215842
  H         1.7423173090        4.1382543305       26.0810546961
  H         3.1234903049        4.0534130624       27.0019505159
  C         1.4153674702        4.8615727740       28.1075431479
  S         6.4822657339       -2.4940780424       28.7943493990
  N         5.8148447521       -2.0429355618       30.2442292250
  C         5.4087639413        0.1046853861       31.3073724165
  H         5.0939852707        2.2943466871       31.8061292793
  H         7.0809705939        1.1334158935       20.3632423250
  H         7.8454616851        0.8887804614       18.9543484041
  C         6.4658295950        2.5920107398       18.9318553979
  H        10.0390764121        0.8971521512       19.3732371506
  H         9.8144150532        0.6527287322       21.1518507403
  C        11.3896752601        2.1067388751       20.5819714978
  H         9.7674153758        3.3831149466       17.6014088128
  C         9.8671214567        6.2098704856       16.9427005915
  H         0.9746846347        3.8999177852       28.2945949063
  H         0.5892920250        5.5890782121       27.8752895325
  C         2.1291448292        5.4284369083       29.4063224814
  C         5.1817336648       -0.4388028556       32.6012568668
  H         6.7172863878        3.2255336472       18.1643156368
  H         6.0116570818        3.2458392549       19.6521394649
  C         5.4457293548        1.6042103278       18.4093928718
  H        11.3105120436        2.8381732644       21.3824914985
  H        11.6868000590        2.6952675417       19.7007291113
  C        12.5767633577        1.1534748297       20.8442329185
  C         9.9405457802        7.5925295762       16.7860717017
  C        10.1305505132        5.4311482150       15.6997014400
  H         2.9227247598        4.8484126866       29.6921127378
  H         2.3212916025        6.4851845957       29.3735770602
  C         1.2723629053        5.1002356070       30.5694810999
  H         5.1827205452       -1.5125561282       32.6021499242
  C         4.7399498551        0.0172762942       33.8827044789
  H         5.0706295977        1.0443919781       19.2279705830
  H         6.0043694665        0.9227348482       17.7142775658
  C         4.2297009653        2.3092994905       17.7070757434
  H        12.6045120721        0.6638453855       21.7982638521
  H        12.7378404049        0.2321344660       20.2003503580
  C        13.8704787542        1.9818389959       20.7189445622
  N         9.7106158434        8.5363341633       17.8157948005
  C        10.2729765159        8.2098757624       15.6026935190
  C        10.4461707851        5.9922742202       14.4786661157
  H        10.0476217120        4.3915806339       15.6305659435
  H         0.7059800529        4.1160332193       30.5352214562
  H         1.9303049873        5.0096028368       31.4848525095
  H         0.4585633795        5.9421344072       30.6845175510
  S         4.4863095900        1.6954080652       34.2890945381
  C         4.6663470765       -0.9322567058       34.9890042859
  H         4.3667842798        3.4267081924       17.7477728387
  H         4.0584524381        2.0898585672       16.6943652161
  C         2.9136687461        1.9110237017       18.4653355286
  H        13.8328120631        2.7716609755       20.0228425221
  H        14.7134015654        1.3540375586       20.3936171373
  C        14.4108969288        2.6155288540       21.9836341345
  S         9.6594959118       10.0135327962       17.1494737329
  N         9.9877883164        9.6138037846       15.5870578778
  C        10.6059445682        7.4825289677       14.4359260691
  H        10.6559659217        5.3594779323       13.7208879518
  C         4.2746204555        1.0658089769       35.9153421489
  N         4.3086764586       -0.3060548616       36.1189702215
  O         5.0125252144       -2.1190963767       34.8303932224
  H         2.2030140260        2.7853244557       18.4553589761
  H         2.9552239312        1.4869043490       19.5163016676
  C         2.0938381857        0.8249723176       17.7461700219
  H        15.1080925116        3.4124685244       21.8093317394
  H        13.6131747811        3.0263866369       22.5062929115
  C        15.0973798775        1.4666481277       22.7628915798
  C        10.8253215813        8.2341200430       13.2796726839
  S         3.8513550565        2.0993004665       37.3442790227
  C         4.2088030229       -0.9233596518       37.4173472583
  H         1.0553091421        1.0499155745       18.0986907667
  H         2.0983311211        0.9642666060       16.6476624500
  C         2.6207862150       -0.5146438862       18.1047605364
  H        15.0995260445        0.4936613683       22.2280021608
  H        14.5283493529        1.3044108693       23.6651761338
  C        16.4071684818        1.8344614058       23.3477457740
  H        11.0940055986        9.2120806464       13.4744590938
  C        11.1981816897        7.8750206308       11.9864930195
  H         3.4205116087       -0.5293680212       38.0250202705
  H         3.8966744136       -1.9210254383       37.1863538354
  C         5.6503213577       -1.0528441929       38.0891121925
  H         2.6918780996       -0.6293517286       19.1728672774
  H         3.6980587469       -0.6054598844       17.7643704204
  C         1.8640607247       -1.6755285888       17.5419340657
  H        16.3356879984        2.8167004955       23.8183907494
  H        16.5999577200        1.0409694337       24.0821469238
  C        17.6085327632        1.7292233496       22.3433889761
  S        11.5387613260        6.2790596928       11.4900287864
  C        11.5114624521        8.8893112199       10.9939648334
  H         5.7462322348       -0.2225062681       38.8079956135
  H         5.8383418469       -2.0235544169       38.4723848244
  H         6.4865422136       -0.9356947562       37.3254569345
  H         2.3539373856       -2.6460902134       17.5431475688
  H         1.6269112494       -1.5460913319       16.4339078836
  H         0.8526954749       -1.7391307428       18.0232018210
  H        18.4648054013        1.6146121580       23.0238005684
  H        17.7899189677        2.5498613131       21.6691085524
  H        17.6281516089        0.8548643242       21.7360555794
  C        12.0830623528        7.0006765280        9.9813936447
  N        12.0347828932        8.3238945610        9.8976729134
  O        11.3315057087       10.0790655417       11.2456313540
  S        12.3862623128        6.0664836190        8.4910809210
  C        12.3010698841        9.2043856455        8.7721256181
  H        12.7384162409       10.1166791673        9.1534742586
  H        13.2482539840        8.8798426510        8.2270402164
  C        11.0153654201        9.3826470576        7.9305099857
  H        10.9946593832        8.6893189914        7.0935621515
  H        10.0506451385        9.2182969261        8.4482465144
  H        10.9308965191       10.4068127919        7.5660808045
  H        22.8099369997       11.5525781720        3.8070982610
  C        22.6911563314       10.5154382126        3.6823772736
  H        21.6622092609       10.4034003469        3.4641167597
  C        23.1760301372        9.9235523627        5.0595203595
  C        23.2633089728       10.0586831646        2.4077186533
  C        22.2247449194       10.2318053363        6.2155599040
  H        23.3823182254        8.8524654464        5.0016112889
  H        24.1395542371       10.2607462757        5.2531702157
  H        23.9395109327        9.2074453090        2.5140573871
  H        23.7979301896       10.8499902698        1.8882129612
  H        22.5373953649        9.6664763489        1.7554028928
  C        21.2075119489        9.1810675893        6.5119144744
  H        22.8838845271       10.4155597153        7.0485831038
  H        21.8043904839       11.2319343193        6.0314451116
  C        20.3210523129        9.6336529926        7.6727783218
  H        21.6766303466        8.1969464511        6.7138515121
  H        20.5658005547        9.0184278304        5.6597925025
  C        19.1255415066       10.4662561865        7.1516652359
  H        20.9356593541       10.2800304651        8.3309499557
  H        20.0771199528        8.7668002610        8.2564767910
  C        17.8083235523        9.8285724949        7.0508713189
  H        19.0316344856       11.2786901007        7.8951713102
  H        19.3812666202       10.9882938067        6.2493050694
  C        16.6237417963       10.7588081943        6.9043602313
  H        17.6894060554        9.2460097573        7.9525978720
  H        17.8864372055        9.0233760777        6.2753999484
  C        16.9547401736       12.1420587774        6.2485507567
  C        16.3329919593       11.4807806815        8.1617261538
  C        15.4190844906        9.9799314401        6.3133159255
  C        16.8673888891       13.2372577997        7.1141372603
  C        17.3276009995       12.5840790213        4.9656718403
  C        16.4944330389       12.8319878482        8.3847273092
  C        15.8907136830       10.7235084674        9.2100472393
  H        15.6796577147        9.3166851164        5.5521540180
  H        15.0802070114        9.2133329723        7.0562000757
  C        14.2487640536       10.9412046311        5.9523859016
  S        17.5115077052       14.6879810539        6.4256689357
  C        17.5301798446       13.9460160572        4.9227216008
  H        17.4900112817       11.9097411860        4.1523407053
  C        16.2221836736       13.4082180672        9.5260490759
  H        15.7921839024        9.6788584974        9.1700700610
  C        15.6318070031       11.3365611074       10.4467146930
  H        14.6854203489       11.7984961551        5.4076344601
  H        13.7088768972       11.3475454008        6.8941293840
  C        13.2510989511       10.2755907500        5.0595940963
  C        17.9599060422       14.6811025999        3.6915176432
  C        15.7361571998       12.6830172262       10.6211917644
  H        16.2230329799       14.4805918517        9.6068654282
  C        15.1126508815       10.9605868008       11.6824025732
  H        12.4126333041       10.9287408404        4.9000183579
  H        12.8431639488        9.3348713556        5.3949916485
  C        13.7339895192       10.1285937234        3.6503200476
  C        17.9473951451       16.1508664134        3.5564843257
  C        18.3895429435       13.9351637017        2.5339609414
  C        15.2726199836       13.3821990895       11.8957295863
  C        14.9949279138       12.0242632983       12.6008429404
  S        14.4916140901        9.4825392074       12.3749358430
  H        14.3273464964        9.2877501090        3.5324006131
  H        14.2569986726       11.0230816397        3.3726185510
  C        12.5467916364        9.9474163459        2.6958489230
  N        17.6001099644       17.0086462624        4.5727340363
  C        18.1389081215       16.8235566766        2.3620474677
  C        18.6706921787       14.6032141774        1.3035702826
  H        18.5860276131       12.9033625866        2.6224744928
  C        13.9577715683       14.3083152333       11.7236815873
  C        16.4990126814       14.0421745431       12.6416081475
  C        14.4584533540       11.5983057799       13.8401428431
  C        14.1999697309       10.2782191642       13.8779308914
  H        11.9220065716        9.2539665339        3.1652505676
  H        12.0369596908       10.8956162297        2.7016382663
  C        12.9754951200        9.3777553448        1.3295201162
  S        17.6829819920       18.5490938211        3.9498181393
  N        17.9529314732       18.1915078865        2.3991678038
  C        18.5944650273       16.1297855666        1.1594482536
  H        18.9760327085       13.9758903715        0.4576536901
  H        14.2441662527       15.2563356837       11.1507317116
  H        13.5113778746       14.6544753129       12.6395710645
  C        12.8802488162       13.5561350215       10.9480686756
  H        16.9603690399       14.7301949234       11.9488437192
  H        15.9678306187       14.4621808091       13.4520038922
  C        17.5594598419       13.0580973014       13.1465628152
  H        14.4636809554       12.3535019603       14.5956912933
  C        13.7943855699        9.5185431951       15.1139503774
  H        12.1131630341        9.0681483523        0.8515654115
  H        13.7122272179        8.5418548065        1.5257040347
  C        13.7707953397       10.3075465026        0.4269218767
  C        18.8853386843       16.8228821719       -0.0252352587
  H        13.0852482856       13.4525635455        9.9180786583
  H        12.8054250586       12.5158184956       11.2528821084
  C        11.5054375087       14.2796606726       11.1386908257
  H        17.9089513129       12.3823968105       12.4022145796
  H        17.0626571912       12.3806037918       13.8527126201
  C        18.7211812883       13.8226429009       13.9596693521
  C        13.7979328842        8.1324970037       15.2496925433
  C        13.5113980960       10.2722775577       16.3423781740
  H        14.0047461405       11.2415020180        0.9242214823
  H        14.6605031051        9.9245960700        0.0410440094
  C        12.9537554776       10.5378213818       -0.8245697222
  H        18.6441386260       17.8429694773        0.0336078144
  C        19.2436163177       16.4105361107       -1.2739871857
  H        11.4678525430       15.3040690476       10.6294154932
  H        11.3339542912       14.5766014752       12.1532733938
  C        10.3936774555       13.3100708980       10.7237366790
  H        18.8840147865       14.7536284495       13.5087210014
  H        18.4027496306       13.9746329375       15.0408961564
  C        20.0418050499       13.0599047403       14.0125585553
  N        14.0500141612        7.1599072203       14.2651715702
  C        13.4787783892        7.5230437169       16.3860102600
  C        13.1332429233        9.6515447646       17.4837737122
  H        13.4467908615       11.2963478077       16.2212616913
  H        11.9860668648       10.8716195485       -0.5957730725
  H        12.8567474727        9.5868295440       -1.3145370718
  H        13.4530494661       11.2045158657       -1.5505006307
  S        19.5007204194       14.7757925161       -1.8125316420
  C        19.2768472277       17.4330340845       -2.3275758841
  H        10.7314288305       12.9377074858        9.7305638183
  H        10.2906038581       12.4876380128       11.4548304652
  C         9.0175364814       13.8833597008       10.6354301311
  H        20.1373058628       12.2138181200       13.3278152473
  H        20.0351706932       12.6927967782       15.0133617088
  C        21.3017409969       13.9830631392       13.7295988932
  S        13.9579089397        5.6564149292       14.8472960013
  N        13.4809694951        6.1275788898       16.2886955477
  C        13.2197952542        8.1635557931       17.6009278363
  H        13.0648980685       10.2722063937       18.3753544923
  C        19.5790823954       15.5482494312       -3.3749273788
  N        19.4601074963       16.8799942031       -3.5003815525
  O        19.1659596739       18.6056938975       -2.0772852115
  H         8.4266364150       13.6618403015       11.5278473444
  H         9.0823452377       14.9459703234       10.4582991796
  C         8.2287242774       13.2363109662        9.4831315767
  H        22.2217330539       13.4148695039       13.8051344912
  H        21.2795414629       14.4248063691       12.7572336235
  C        21.4813372191       15.0568358428       14.8064014765
  C        12.9900687795        7.3470380610       18.7401426029
  S        20.0157720026       14.7277405345       -4.9107304818
  C        19.4473821872       17.6953670567       -4.6837389484
  H         8.7915589153       13.1330485439        8.5382594549
  H         7.9438452395       12.1814458213        9.7210465083
  C         7.0118187972       14.0705719411        9.1579524360
  H        22.3774740421       14.7609882004       15.3799961291
  H        20.5720021295       15.1212447925       15.4052610957
  C        21.8563704011       16.3321401705       14.1257951881
  H        13.2180992138        6.3374440534       18.5870919530
  C        12.2751988817        7.6218762661       19.8889537634
  H        20.0474369562       17.1763171292       -5.3938548527
  H        19.7029655628       18.7127739302       -4.5330779132
  C        18.0327494667       17.7471833844       -5.2733916932
  H         6.4765286735       13.6343670297        8.2665534286
  H         7.2595179800       15.0989336757        8.8652531805
  C         6.1114361193       14.0732445183       10.3711832612
  H        22.8925367402       16.1118615220       13.7755319718
  H        21.2522364510       16.6470703870       13.2993394010
  C        22.0044206121       17.5026448937       15.0920955124
  S        11.6057137623        9.1225601546       20.4599310748
  C        12.2098480867        6.4897074769       20.8473638143
  H        17.6143037215       16.7467439534       -5.4605258004
  H        17.8978213444       18.2413001002       -6.2019428963
  H        17.2787395223       18.1967667611       -4.6277553502
  H         6.2608925463       14.9408206358       11.0092955896
  H         5.0932437168       13.9695426117        9.9708358538
  H         6.2588619043       13.1706899140       10.9847567241
  H        22.5697796498       17.2426788012       15.9652000357
  H        22.4067889788       18.3559301918       14.5676026195
  H        21.0933497563       17.9533988954       15.4100428728
  C        11.2257933784        8.2422716832       21.9346715851
  N        11.5801535446        6.9126764260       21.9611507151
  O        12.5681475582        5.3797356496       20.5653430042
  S        10.5644286140        8.9266876811       23.4476183456
  C        11.4895640115        5.9616049115       23.0884414730
  H        11.4158633439        4.9658932729       22.6679187829
  H        10.6181890837        6.0287607709       23.7420503832
  C        12.7871311191        5.8758290873       23.8801760531
  H        12.8761308304        6.8184536088       24.3917138512
  H        13.6929678955        5.6490252815       23.2059638109
  H        12.6091910476        5.0090238678       24.5419479696
