352
 i =    98200, time =    98200.000, E =        25.0236741888
  H        11.3570717613        7.8179226808       30.7427408205
  C        12.1517606538        7.3058837900       31.2962187161
  H        13.0249690524        7.9855713149       31.4140447436
  C        12.5705880197        6.0519252658       30.4732169854
  C        11.4228112805        7.0889553873       32.6393475639
  C        11.3322094545        5.2128196616       29.8241037771
  H        13.2228873679        6.2864757003       29.6248421787
  H        13.2980527307        5.4319936990       31.0375052502
  H        10.4102107742        7.5356017165       32.5055799465
  H        11.5629023444        6.0759189894       32.8101282226
  H        11.9413734501        7.6111236358       33.4561629021
  C        10.6519645943        5.9436349407       28.6158469851
  H        10.6113386268        5.1265194428       30.5693133136
  H        11.5931790930        4.2547489601       29.5738335010
  C        11.0934017225        5.6163497395       27.2381671711
  H         9.5253230410        5.7560458415       28.6986681679
  H        10.6749344736        7.0844061809       28.6010673495
  C        10.0721843375        4.8242844543       26.4055188336
  H        12.0741090755        5.0157841306       27.2499088674
  H        11.3636043814        6.5381579822       26.7326487505
  C         8.9369469657        5.7220754703       25.9359770386
  H        10.5530177653        4.4437421578       25.5187007485
  H         9.7739925536        4.0841244049       27.1459248430
  C         7.7966630590        5.0146069334       25.2804517483
  H         8.6705728892        6.4581342554       26.7159175209
  H         9.3090894081        6.2903168737       25.1009877216
  C         7.4051112616        3.7280763678       26.0479290128
  C         8.1357279701        4.2934090945       24.0549630884
  C         6.6133649537        6.0187285582       25.0137145526
  C         7.4842649182        2.6287457914       25.1861280972
  C         6.9625042766        3.3922016693       27.3355853972
  C         8.0561794958        2.9593489322       23.9311021767
  C         8.6326223905        4.9922453591       22.9688302232
  H         6.2723984601        5.8266803889       24.0606526290
  H         6.9614742160        7.0599567613       24.8690209505
  C         5.5872206100        6.3759301512       26.0899057764
  S         6.9145181163        1.1823235788       25.8770680288
  C         6.7054629722        2.0761358099       27.4811473334
  H         6.7368660736        4.1446966892       27.9942239246
  C         8.4553884915        2.3560568176       22.7494239157
  H         8.5610825928        6.1009787739       23.1203554954
  C         8.9752560585        4.3950360766       21.8086862106
  H         5.5923546575        5.6408869056       26.8943252892
  H         5.7526378456        7.3711804803       26.4855244368
  C         4.2333529999        6.3013054558       25.5301087058
  C         6.2420639853        1.4523469421       28.7674354483
  C         9.0131948954        3.0334839018       21.6847167374
  H         8.4956526545        1.2424469196       22.7753644320
  C         9.3413066988        4.8201541696       20.5517376078
  H         4.0139062670        5.2775185031       25.2059991966
  H         4.1909659093        6.9476545494       24.6633723197
  C         3.2415384535        6.5745891207       26.6860894032
  C         6.1903694092        0.0653854432       29.0174430064
  C         5.8652992863        2.3345682648       29.9051123955
  C         9.4435816223        2.3441242560       20.4542636929
  C         9.6814923346        3.7549734496       19.7803063730
  S         9.6017660161        6.3082186236       19.8642028214
  H         2.3669636137        7.0568150014       26.2778335415
  H         3.5476373741        7.3834044048       27.3907545212
  C         2.9660085767        5.2567098235       27.4575573342
  N         6.4142619505       -0.7881926689       28.0078615188
  C         5.8526983285       -0.5010902948       30.2448651043
  C         5.5117918805        1.8075839273       31.1612552388
  H         5.8937106381        3.4012694250       29.7293313322
  C         8.2721112455        1.6301458282       19.8279300031
  C        10.6853233852        1.5009503780       20.6389717067
  C        10.0000999051        4.1435437028       18.4716355857
  C         9.9377504921        5.4690457575       18.3138334865
  H         2.6548627651        4.4997166083       26.7559262462
  H         3.8884141163        4.8159397079       27.8341596206
  C         1.9537814325        5.3523991139       28.5832721062
  S         6.3191877701       -2.3216543705       28.6122593844
  N         6.0065412915       -1.9257843121       30.1597923091
  C         5.5058052727        0.3038204761       31.3621704643
  H         5.2896985976        2.5266889340       31.9646539662
  H         7.9811210718        0.8227215971       20.4852993003
  H         8.7127837514        1.1439991627       18.9226502484
  C         7.0158363010        2.4688455727       19.4964182319
  H        10.8765826880        0.8229417025       19.8306969097
  H        10.7202589621        0.8893628272       21.5436208444
  C        11.8899813050        2.3310973046       21.0114490702
  H        10.1615003067        3.3736399615       17.7172456809
  C        10.2343907959        6.2521793175       17.1003581704
  H         1.4651487304        4.3858708969       28.6816107434
  H         1.1097341501        5.9063310722       28.1884487860
  C         2.4424725252        6.0147145741       29.9637186360
  C         5.2561468015       -0.3006038659       32.6472210993
  H         7.2446883955        3.1648397585       18.7026598001
  H         6.7527590392        3.0242852330       20.3255473060
  C         5.8831407467        1.5339306039       19.1279620916
  H        11.7357333930        2.8981405763       21.9085035785
  H        12.1601565127        3.0562872950       20.1623417021
  C        13.1637957431        1.5199582253       21.2146464525
  C        10.4226534193        7.6456860767       17.0227834391
  C        10.3797605101        5.5351727906       15.7924343478
  H         2.8322476737        6.9959110914       29.7507231899
  H         1.6614506787        6.1384619313       30.7109100932
  C         3.6696848289        5.3436620249       30.6025079498
  H         5.2712902672       -1.3424508785       32.6596861599
  C         4.8977548451        0.2295092729       33.8539671280
  H         5.3272094092        1.2940284280       20.0553593405
  H         6.3563402020        0.6368858980       18.7467820050
  C         4.7620677249        2.0527464074       18.1709618533
  H        12.9287918897        0.7198982198       21.8838195740
  H        13.4040521415        1.0343904784       20.3142441904
  C        14.2873186378        2.4168749002       21.7167739334
  N        10.2439625344        8.5911477333       18.0208412683
  C        10.7851676476        8.3167070243       15.8864804636
  C        10.8776970190        6.2422839493       14.6487703609
  H        10.3402347994        4.4479058726       15.7865707737
  H         3.9621384515        6.0061203342       31.4576813079
  H         3.5898161004        4.3453307783       30.9787684911
  H         4.4900669397        5.2810264222       29.8475017245
  S         4.4815150524        1.8878614624       34.2772946815
  C         4.8204984579       -0.7438567494       35.0275532988
  H         4.7721911058        3.0962647069       18.4129241556
  H         5.0078672186        1.8763437499       17.1810774804
  C         3.3259733859        1.3722993918       18.4033763159
  H        13.7778008418        3.3243398440       22.2397878898
  H        14.6931559665        2.7255733328       20.8304408788
  C        15.4467891253        1.8122445687       22.5179483652
  S        10.5348870014       10.1043867399       17.5650644946
  N        11.0114931323        9.6843570696       16.0400712514
  C        11.0168637831        7.6896950309       14.6420210220
  H        11.1680115741        5.6241082870       13.7897307326
  C         4.2400472917        1.2988073292       35.9415613281
  N         4.3010152924       -0.0368998372       36.0920279461
  O         5.2877526683       -1.9052953640       34.9347681457
  H         2.5915629944        1.8559761592       17.6661225806
  H         2.9808273637        1.7674711260       19.3486190984
  C         3.4010088583       -0.1370748326       18.5134214774
  H        14.9871447084        1.1459801630       23.2706143146
  H        16.0048908001        1.3132823239       21.7972087589
  C        16.4064233379        2.7214210374       23.3375165050
  C        11.2598266197        8.5180206143       13.4249564608
  S         3.7763630987        2.2644333037       37.3486863860
  C         4.3145788921       -0.6274065218       37.4666329857
  H         3.9565692210       -0.6439812385       17.7107339462
  H         3.9498732209       -0.4384091297       19.4335642513
  C         1.9410365461       -0.7281138422       18.6302173156
  H        15.9179473525        3.4651831830       24.0770234143
  H        16.7941416653        3.4260872914       22.6423677097
  C        17.6336005207        1.8399432611       23.8364543523
  H        11.0717997621        9.5695074131       13.5233983285
  C        11.7753454041        8.3505578825       12.1414244231
  H         3.6504462193       -0.2117718176       38.1565626102
  H         4.0673523213       -1.7003232748       37.4124621059
  C         5.7450841597       -0.6717578461       38.0061167497
  H         1.2588480553        0.0880682469       18.8892767209
  H         1.9299502695       -1.4291696232       19.4188391327
  C         1.5373330812       -1.4662917084       17.2914642134
  H        18.2792019385        2.3781486643       24.5508270701
  H        17.2687379606        0.8433901486       24.1789245117
  C        18.6762059821        1.6241018804       22.6961632005
  S        12.2559987391        6.8277921415       11.5439661764
  C        11.8850585393        9.5229724991       11.2687567361
  H         5.8576291111       -0.2018483731       38.9634039064
  H         6.1085042870       -1.6973632775       37.9491068650
  H         6.3445898484       -0.0429406598       37.2920556114
  H         1.9164672852       -2.5510919610       17.1610369024
  H         1.5821774158       -0.8685570662       16.4145667643
  H         0.4428567484       -1.6174923946       17.3242198489
  H        19.6087584399        1.2356698374       23.0739578542
  H        18.8854599313        2.4392352872       22.0419233578
  H        18.3958043381        0.8080581238       21.9832507643
  C        12.5880282795        7.6972031599       10.0492317445
  N        12.4648417047        9.1000117497       10.1317524743
  O        11.4757524598       10.6217726672       11.5144758240
  S        13.3145324187        7.0388890124        8.6541063218
  C        12.5925175783        9.9509283641        8.9578466531
  H        12.8713944386       10.9564446264        9.2754623006
  H        13.3551724068        9.5985643632        8.1863690588
  C        11.2676776072       10.1019297407        8.2610469860
  H        10.6730595020        9.2421333747        8.5315492625
  H        10.6979468046       10.9154089773        8.6732677575
  H        11.3239845874       10.1782245730        7.1442279382
  H        21.7851953190       11.3890577764        3.1815518613
  C        22.1748962670       10.4418272533        3.3881344551
  H        21.3006020013        9.8498216661        3.6456157860
  C        23.0243998064       10.5851569544        4.6721021579
  C        22.9129795456       10.0146555067        2.0825925516
  C        22.0948564127       10.9198452464        5.8683729504
  H        23.6949584449        9.7519884419        4.7773556602
  H        23.6431653027       11.4216059848        4.5124767478
  H        22.2189129841        9.9223158689        1.2775120838
  H        23.4696211603        9.1673257051        2.1782214793
  H        23.5547771995       10.8533490844        1.8743343158
  C        21.4199697737        9.5616687737        6.3114687653
  H        22.7487704535       11.3843681720        6.5749953564
  H        21.3354699434       11.6730408658        5.5715962333
  C        20.7259869104        9.5552366959        7.6278405742
  H        22.2387860970        8.7944736447        6.3096181145
  H        20.7059256087        9.2072169651        5.5793946470
  C        19.5051039180       10.4609066025        7.7247130357
  H        21.3432049815       10.0107908254        8.4189233345
  H        20.4970962019        8.5315423413        7.8729403893
  C        18.2815724224        9.8660967477        7.0657498290
  H        19.2840691852       10.5228681055        8.8020554898
  H        19.8387486982       11.4500822149        7.3257582930
  C        17.0272312729       10.7733579435        6.8967600251
  H        17.9924724860        9.0098705514        7.6882792026
  H        18.5318156406        9.5953484512        6.0786619604
  C        17.5509866420       12.1294382167        6.3124245714
  C        16.5900018001       11.5330248629        8.1194167827
  C        15.8153556323       10.1957288057        6.1640211005
  C        17.1819570374       13.2605567843        7.0251473516
  C        18.1464121432       12.4208281687        5.0922631324
  C        16.6288411339       12.9302110970        8.2361795077
  C        16.0668120680       10.9004791718        9.3043085511
  H        16.1725751403        9.7952899445        5.2404376764
  H        15.3716319659        9.4437929573        6.8146972573
  C        14.6272750597       11.2138865775        5.8899739922
  S        17.5062002933       14.6934728028        6.1447806007
  C        18.1976849147       13.7846753724        4.8615754912
  H        18.5233271823       11.6449092230        4.3868209340
  C        16.1948452968       13.5797393902        9.3851542357
  H        15.9038959768        9.8297158032        9.3591664066
  C        15.6832198050       11.5994996242       10.3796166619
  H        15.0203268277       12.1669843360        5.6009377685
  H        14.1767530904       11.5136731797        6.8357865640
  C        13.6447722488       10.6057922140        4.9046738445
  C        18.6349360312       14.4702946694        3.5868658310
  C        15.8172138538       12.9297109982       10.5938320009
  H        16.2621976158       14.6337978589        9.5126334137
  C        15.3927071304       11.2036323985       11.6835844890
  H        12.7929438845       11.2829986601        4.9244002891
  H        13.2685098256        9.6221520501        5.2834063925
  C        14.1459034140       10.4948320681        3.4419574163
  C        18.4974631760       15.8759416035        3.3119175470
  C        19.1884098782       13.5947782425        2.4874513840
  C        15.4341294359       13.6550375325       11.7880636122
  C        15.1310573690       12.2954619058       12.5071069828
  S        15.1365158958        9.7018087833       12.5110855840
  H        14.8095937218        9.6437824173        3.4447393542
  H        14.6068961920       11.4277989947        3.1860565978
  C        13.0052114196       10.3845422612        2.4095352878
  N        18.0519639392       16.8486359371        4.2114989138
  C        18.7458469466       16.3377025208        2.0647640178
  C        19.3776301913       14.0857109393        1.2433839477
  H        19.2245390861       12.5560640880        2.6705903387
  C        14.1571322811       14.4431938556       11.4152237710
  C        16.5191742210       14.4746160798       12.5355207248
  C        14.7021833560       11.8663964971       13.7908614180
  C        14.7092556200       10.5337752682       13.8883653954
  H        12.2357645774        9.6305958946        2.7184094429
  H        12.4696744655       11.2854751692        2.2653162370
  C        13.5774710312        9.9702104773        1.0411352973
  S        18.1917661462       18.3038513849        3.5831322795
  N        18.5422023493       17.7919163155        2.0336314544
  C        19.1799226979       15.5651707074        1.0008501381
  H        19.7325393259       13.3228585011        0.4852592823
  H        14.3554672026       15.2978020171       10.7536910257
  H        13.7782473949       14.8664107733       12.4165391906
  C        13.0064427788       13.6245884825       10.7615771818
  H        16.9221027400       15.2531183060       11.8933752190
  H        16.1275857341       15.0314036426       13.3975015731
  C        17.6942395435       13.6994186562       13.1666547371
  H        14.3544497658       12.5921416308       14.4576701972
  C        14.3083427710        9.7132681112       15.0962344700
  H        14.1594979847        9.0157050091        1.0475908184
  H        14.1702644788       10.8012620009        0.6862428943
  C        12.4116778760        9.9866238870        0.0298165039
  C        19.4036518249       16.1259040962       -0.2990305947
  H        13.2443064329       13.3190432755        9.7264292262
  H        12.7103184115       12.8578084544       11.4094035472
  C        11.8064834632       14.5839952305       10.6627199615
  H        18.1852295244       13.0453335388       12.4589157764
  H        17.3169232459       13.1126316187       13.9771897637
  C        18.7566552498       14.6611090043       13.6832015570
  C        14.2289694853        8.3148471588       15.2731610408
  C        14.1840737327       10.4569616315       16.3650296945
  H        11.9254174441        8.9484027277        0.0089944119
  H        11.6563445799       10.5970996511        0.2962288038
  C        12.8350405384       10.3968308635       -1.3412665003
  H        19.1355259616       17.1574586788       -0.3387575695
  C        19.6830532889       15.7061783622       -1.5695140541
  H        12.1968252675       15.5332497016       10.2898669611
  H        11.4529177329       14.8423146350       11.6845525366
  C        10.7241267239       14.0112742539        9.7308790407
  H        19.1317474255       15.3413408557       12.9232513085
  H        18.2436707789       15.2409283396       14.5011046060
  C        19.9336519708       13.8761332447       14.2415859870
  N        14.5169069313        7.3208090021       14.2731400024
  C        13.9970617419        7.7608303321       16.4985960404
  C        13.8604094393        9.8163263254       17.5862166400
  H        14.2509361082       11.5496088379       16.3446765360
  H        13.2980676994       11.3611725970       -1.3490038269
  H        12.0136723027       10.2477425715       -2.0677089444
  H        13.6141370804        9.6591819066       -1.5991624809
  S        20.0859596996       14.0651032405       -2.0039755685
  C        19.6925204663       16.6985385239       -2.6856490293
  H        10.4454362995       14.9065263266        9.1990170823
  H        11.1679515182       13.3262218463        9.0170529836
  C         9.5862551778       13.2369710021       10.4501170424
  H        20.3440258482       13.1691951423       13.4997727227
  H        19.4981644179       13.2730226494       15.0782478761
  C        21.0879154576       14.7242896325       14.7969669881
  S        14.3086432629        5.8566206860       15.0079116621
  N        13.9695223466        6.3257841240       16.5355691907
  C        13.7695298211        8.3905238861       17.7412861048
  H        13.7105679828       10.4443389508       18.4154869106
  C        20.2511883230       14.7053271803       -3.6120402440
  N        19.9861316408       16.0299877529       -3.7742511429
  O        19.5893504002       17.9118291108       -2.6259857358
  H         9.2402114081       12.3180262768        9.9096189212
  H         9.9087407849       12.8856842133       11.4218633454
  C         8.2864822148       14.0505082524       10.6715361828
  H        20.6743870526       15.3682904382       15.6255065204
  H        21.9153023001       14.2091461699       15.2266136789
  C        21.6965956565       15.7127564505       13.7207058029
  C        13.4520713245        7.6610413431       18.9326837121
  S        20.8239512275       13.7177945196       -5.0416660778
  C        20.1462501616       16.6625771906       -5.0829831485
  H         7.7139284241       13.5268779893       11.3544635222
  H         8.4530260735       15.0602454724       11.1547558483
  C         7.5444388757       14.4160538216        9.3836705175
  H        21.3280008938       15.4036944753       12.7308538577
  H        22.7135066758       15.5482654758       13.6841526864
  C        21.3470531307       17.1670457050       13.8819876038
  H        13.7601735368        6.5883947694       18.8214223449
  C        12.8216865904        7.8446142203       20.1751878456
  H        20.4809436420       16.0224365120       -5.9073336642
  H        20.7435831517       17.5639967952       -4.9620627372
  C        18.8102389218       17.1189381910       -5.7248584182
  H         8.2437431018       14.6428908741        8.6478323985
  H         6.9986092174       15.3671781620        9.5089652999
  C         6.6027614710       13.3340266527        8.9366145030
  H        21.4168231075       17.6452067359       12.8797469025
  H        20.3604266805       17.3580953614       14.1926119531
  C        22.1567123988       17.8867352618       14.9743129007
  S        12.3314002181        9.3496151786       20.8422408879
  C        12.6261665832        6.6314147906       21.1064453557
  H        18.2328336998       16.2310586472       -6.0988891044
  H        18.9298033694       17.8043979858       -6.5115765643
  H        18.2728937306       17.8510707043       -5.0971089670
  H         7.2458854865       12.4690158887        8.7007661498
  H         6.0598480229       13.0542958326        9.8442348713
  H         5.9299596363       13.6914444256        8.1295353046
  H        21.9219912213       17.3590382851       15.9019456688
  H        23.2435662303       17.8535566776       14.7172110046
  H        21.8919245975       18.8908389389       15.1214408822
  C        11.9067642907        8.4385770299       22.2762853197
  N        12.0631160151        7.1109552897       22.2490228687
  O        13.0185284868        5.4458858032       20.8560562465
  S        11.1719178672        9.2368226588       23.6234869969
  C        11.9943675180        6.2421493051       23.3989150525
  H        11.6689778562        5.2938246789       22.9940455130
  H        11.2646030735        6.4997329156       24.1257645206
  C        13.3252626505        6.2347057647       24.0765090843
  H        13.4152999133        7.0585233192       24.7701095238
  H        14.1138818686        6.2829092808       23.3320532803
  H        13.5132032189        5.3503433874       24.6527746388
