352
 i =    43000, time =    43000.000, E =        25.1793749252
  H        11.5716498229        7.3983973611       32.5809605480
  C        11.3375584735        6.3630194011       32.1468046468
  H        12.1992739546        5.9013953636       31.7070825470
  C        10.2183098500        6.6220053985       31.2260013244
  C        11.0246979792        5.5368007759       33.4039465110
  C        10.4542471061        6.8112489714       29.6549072778
  H         9.6276979090        5.7582999171       31.4394596551
  H         9.7088594334        7.4757858373       31.6049869930
  H        11.9432628380        5.2154202757       33.8362730938
  H        10.2855538226        6.0285663715       34.0386539082
  H        10.5476217431        4.6088753926       33.1764923438
  C        10.4023178666        5.5263644531       28.8083170405
  H        11.4828834263        7.2272849579       29.6362037625
  H         9.8039238803        7.5668530981       29.2819124582
  C        11.0330613193        5.8375590716       27.4670001232
  H        10.8584171493        4.6515236962       29.1997877546
  H         9.3002730434        5.2061679330       28.7969372064
  C        10.2591957134        5.1109612303       26.3167461764
  H        12.0925736569        5.4561226799       27.6160493096
  H        10.9981992833        6.9316280790       27.3555208408
  C         9.0165966773        5.8778583443       25.9920649262
  H        10.9995599655        5.0006882980       25.5416131974
  H        10.0137596587        4.1679150755       26.6928120210
  C         7.7614031839        5.1446032368       25.4563524144
  H         8.7003482973        6.4334429395       26.8251478609
  H         9.2547477070        6.6425472850       25.2758175829
  C         7.4393435997        3.7955216315       26.1452053517
  C         8.0614900015        4.5219905745       24.1700667056
  C         6.4884587592        6.0898412911       25.3453528143
  C         7.5645072085        2.7706643909       25.2532679829
  C         7.0170596175        3.3855922966       27.4458717219
  C         8.1087708797        3.2075081644       24.0210396098
  C         8.5958570978        5.2337491317       23.0574790080
  H         6.6378053462        6.6915557169       24.4569040576
  H         6.3517434027        6.5423022747       26.3309698838
  C         5.2168680821        5.2446413466       24.9404409761
  S         6.9525758469        1.2542380745       25.8476204164
  C         6.7152770573        2.0659601832       27.4312504344
  H         7.0532528994        4.0747375881       28.2785812169
  C         8.4980910514        2.6219801868       22.8560083055
  H         8.7312133344        6.2556443179       23.0714246558
  C         9.0332192424        4.6310051695       21.8835179406
  H         5.3665422572        4.7820648166       23.9812378569
  H         4.8833034110        4.5495427756       25.6962657399
  C         4.0045834107        6.1370903663       24.6235087374
  C         6.1117288710        1.3284509986       28.5893930506
  C         9.0172847632        3.2903101052       21.7489573525
  H         8.6192912835        1.5715593886       22.8411410906
  C         9.3977232514        5.0017589304       20.6239038554
  H         3.4316756686        5.5899561006       23.8595458584
  H         4.3904578465        7.0398116546       24.1912426110
  C         3.1814283872        6.4090273596       25.9380616372
  C         6.0110138955       -0.0494147100       28.8268901744
  C         5.5284215084        2.2012157367       29.6556975908
  C         9.4527530056        2.5739554465       20.4832746296
  C         9.6405288706        3.9200668065       19.8036997185
  S         9.4597568089        6.5356809677       19.8270876182
  H         2.5172272665        7.3479904659       25.8913614725
  H         3.8314840879        6.6138673241       26.8186334230
  C         2.3189362558        5.2481793704       26.2231681496
  N         6.4192337980       -1.0033757198       27.8720855220
  C         5.6432946282       -0.5550084747       29.9845316596
  C         5.2988680104        1.7608556731       30.9625942804
  H         5.3444520322        3.2379014106       29.4858804095
  C         8.4631362474        1.7761711946       19.6354374287
  C        10.8530985956        1.9229014328       20.5802129684
  C        10.0170949063        4.3603723908       18.5363458913
  C         9.8782201336        5.7410892552       18.3711938652
  H         1.7770883697        5.0551814865       25.3345378942
  H         2.9471752315        4.3162031457       26.3382811807
  C         1.3445411526        5.3346780534       27.4641501154
  S         6.4847285347       -2.4525738219       28.6470946914
  N         5.6920321920       -1.9875447285       29.9400834356
  C         5.3523126052        0.2544311941       31.1815077073
  H         4.8886559428        2.4006847256       31.7267874568
  H         8.0873476708        0.9165129061       20.2283656170
  H         8.9811939113        1.3467056429       18.7655494904
  C         7.2224364629        2.5686839382       19.1140925861
  H        11.2085461852        1.7567782059       19.5077695540
  H        10.8912256830        0.9940597256       21.0587115700
  C        11.9922457891        2.7448133968       21.2415099861
  H        10.3435380445        3.5605340794       17.8491699001
  C        10.1388534126        6.4479887434       17.1037531323
  H         0.7611941496        4.4163723807       27.3976706647
  H         0.7059443877        6.2228662337       27.4818645851
  C         2.1605721935        5.2235239921       28.8410272226
  C         5.1164230455       -0.3771209550       32.3728313701
  H         7.3005347437        3.6142784963       18.9571998705
  H         6.6387385563        2.6239772972       20.0091251599
  C         6.5235501105        2.0579517480       17.8820723727
  H        11.5426242634        3.1035239470       22.1818711988
  H        12.1553093849        3.5900417182       20.5745774477
  C        13.3199011710        1.9806736912       21.2664457637
  C        10.1266222603        7.8495604241       16.8895655108
  C        10.5381036550        5.7222148816       15.8910317069
  H         2.5204150152        4.2519736196       28.9909486376
  H         3.0627160568        5.8119218010       28.8270003816
  C         1.3598166615        5.8008750765       29.9350205387
  H         5.4072699671       -1.3882897089       32.3670783731
  C         4.6880858461        0.0655360665       33.6203587926
  H         6.6427217113        0.9874245333       17.7385773773
  H         6.9935566997        2.4984762180       16.9362639962
  C         5.0708542377        2.3252873733       18.0171086553
  H        13.2592562144        1.1958579496       22.0789178895
  H        13.5437804089        1.3970198699       20.3035076882
  C        14.4745849566        2.8659760797       21.5797502074
  N         9.9477731373        8.8055271325       17.9279083487
  C        10.3143289033        8.5010453448       15.6999719004
  C        10.7545903127        6.3611198773       14.6572397518
  H        10.4495518833        4.6354446456       15.8408565203
  H         0.7763367608        5.0164562109       30.4076717655
  H         1.9921804629        6.2960760306       30.6464051830
  H         0.6360560091        6.5582301033       29.5545514320
  S         4.2566190342        1.5879429487       34.1192251246
  C         4.8296944154       -0.9426875263       34.7130672231
  H         4.9611125608        3.0606230066       18.7232680339
  H         4.6472630930        2.7688282957       17.1241733159
  C         4.1454400056        1.1094560954       18.3436685887
  H        14.1470986724        3.8177906851       21.2900449669
  H        15.3517958483        2.7798469908       20.9393647473
  C        14.9161322988        2.7856309492       23.0051836876
  S         9.8291549360       10.3171167961       17.3524290008
  N        10.0678696442        9.8958669243       15.7687243338
  C        10.6373859255        7.8671447401       14.4493920150
  H        11.0552631509        5.7293991554       13.9557372921
  C         4.1804186938        0.9513307959       35.7460066091
  N         4.3999655272       -0.3633281391       35.8561342198
  O         5.0119433405       -2.1435563184       34.5326271530
  H         3.0851211454        1.3088861049       18.3113411235
  H         4.5059008842        0.7336407401       19.2879798752
  C         4.3369513318       -0.0392166714       17.2858336152
  H        15.2901543231        3.8319060849       23.2110118476
  H        13.9984335531        2.6867974456       23.5728695171
  C        15.9860021228        1.7563194829       23.2528761390
  C        10.8315925269        8.6094287519       13.2438073214
  S         3.6684856620        1.9169309976       37.1333655050
  C         4.4650181579       -0.9945907400       37.1191103005
  H         4.2200419631        0.4263385480       16.2816297241
  H         5.3433582008       -0.4324125971       17.2748182839
  C         3.4943674034       -1.3191911862       17.4007832040
  H        16.1025994939        0.9720606619       22.4384352841
  H        15.5582677370        1.2053360353       24.0815962512
  C        17.3658660672        2.3393233097       23.5233846802
  H        10.4754942840        9.6516532742       13.2320833764
  C        11.4249868299        8.2240492234       12.0577424622
  H         3.7873228103       -0.6073129675       37.8037346968
  H         4.2638802462       -2.0023995164       36.9065403530
  C         5.9148541697       -0.8341720580       37.5969541065
  H         3.7049468410       -1.6777370066       18.3747889022
  H         3.8939968536       -2.0497958709       16.6720705610
  C         2.0131166925       -1.1690771183       17.1275047975
  H        17.3574681970        3.1811043611       24.2358225582
  H        18.0520355152        1.6126542964       23.9507359815
  C        17.9352641223        2.7854457656       22.1737736245
  S        12.1607649651        6.6736562779       11.7512798278
  C        11.4688641872        9.1888996063       10.9331582519
  H         5.9417370550       -1.3630684991       38.5415455582
  H         6.6444956891       -1.2507195772       36.8915478154
  H         6.2260739381        0.1512812878       37.7181017077
  H         1.4639064403       -1.6727265937       17.8512102466
  H         1.7291097783       -1.5172936591       16.1841012885
  H         1.7220869488       -0.1105189384       17.2315502375
  H        19.0231313643        2.9242819740       22.2412581328
  H        17.5230047124        3.7105844899       21.7773381044
  H        17.8792898671        2.0351712171       21.3995859044
  C        12.4054954902        7.2893066623       10.0761082625
  N        12.1217407518        8.6671186270        9.8785376747
  O        11.0233504728       10.3387528920       10.9286211954
  S        13.1753392032        6.2978131869        8.8328019456
  C        12.3491000055        9.4387525137        8.6344646145
  H        12.5088852933       10.4193867585        8.9426656996
  H        13.3448915633        9.1390431977        8.2211473726
  C        11.2273425804        9.3230778164        7.6910207345
  H        10.5406136461       10.1721048052        7.8013514873
  H        11.5442818050        9.2412402885        6.6244022525
  H        10.7420738182        8.3946166978        7.8417103471
  H        20.2201298540       10.9357579133        3.6138527184
  C        21.0012818575       10.1315307779        3.5320271954
  H        20.4994992455        9.2413155485        3.8797249497
  C        22.1736401064       10.4080902867        4.4184082740
  C        21.2936959297        9.9587948679        2.0340012111
  C        21.8332154164       10.7362717196        5.9291864831
  H        22.8955644020        9.5226916321        4.3078319154
  H        22.7091774080       11.3596700977        4.0990742730
  H        20.5576872346        9.5919101939        1.3768589276
  H        22.2087430610        9.4091740779        1.8506743521
  H        21.4561246271       10.9453819312        1.7814840937
  C        21.0870204388        9.5664291736        6.6133698996
  H        22.7440510662       10.8896707186        6.3652970030
  H        21.2114096182       11.6475604354        5.8774763269
  C        20.4067210763       10.0567616562        7.9451141650
  H        21.8957563133        8.8498258632        6.8395696000
  H        20.3211318024        9.0984176818        5.9368381140
  C        19.0909525249       10.7624738946        7.6805610788
  H        21.1347446937       10.7165109561        8.4854083478
  H        20.3689951003        9.1427175208        8.5083624780
  C        17.9275344968        9.8788187231        7.1681949990
  H        18.8800491690       11.2408280596        8.6004896934
  H        19.3282684919       11.5560119397        6.9839141559
  C        16.7418401829       10.8227196682        6.8696877012
  H        17.6075857539        9.2061561317        8.0035479953
  H        18.2123313498        9.3938044571        6.2343150152
  C        17.1057593196       12.2620730800        6.1222018876
  C        16.2408042672       11.6452445105        8.0144051359
  C        15.6818040943       10.1328134857        6.0130232493
  C        16.8201416996       13.3812962597        6.9022009218
  C        17.6091825579       12.6075841985        4.8582583923
  C        16.3282915416       13.0262121568        8.1484631552
  C        15.7698090972       10.9668313777        9.1931699793
  H        15.9942057742        9.5962114424        5.1421797354
  H        15.3294767457        9.2471768144        6.5174366027
  C        14.5048138165       11.0287251395        5.6057916083
  S        17.2296448577       14.9021529545        6.1029693639
  C        17.6998818601       13.9668845392        4.6834633452
  H        17.9166269929       11.8427636584        4.1016025359
  C        15.8521076913       13.6189588236        9.2765271099
  H        15.6330733309        9.8834083514        9.3576683968
  C        15.2913349186       11.6236212373       10.2722387149
  H        14.9466515068       11.8389599000        5.0399913339
  H        13.9824967562       11.3951189898        6.5003935808
  C        13.4757373326       10.2690658391        4.7226308744
  C        18.0799538818       14.6040840139        3.4160487861
  C        15.3827828172       12.9453336676       10.4000491872
  H        15.9613363060       14.6609067389        9.3185512507
  C        14.8092346645       11.2191710559       11.4899114423
  H        12.5169211819       10.8837938553        4.6919412906
  H        13.2590921592        9.2591386681        5.1532672934
  C        13.9495021483       10.1599670909        3.3038759077
  C        17.9340989814       15.9218498110        3.0929441098
  C        18.5252087286       13.7399793273        2.2748519894
  C        14.9041873560       13.5753057185       11.6662037417
  C        14.6338990290       12.2831310542       12.3744788504
  S        14.5293184100        9.6890390790       12.2757855543
  H        14.5931162729        9.3572546385        3.0942044836
  H        14.4501236753       11.0770913415        2.9539453126
  C        12.7167228662        9.9689920901        2.3501176099
  N        17.6242832122       16.9419012624        3.9696602237
  C        18.2218311648       16.4088233315        1.8208219737
  C        18.8211486916       14.2863785201        1.0528871898
  H        18.7267460863       12.7166836410        2.5022015251
  C        13.5624082159       14.2911789439       11.5800985625
  C        15.9862821057       14.3711975178       12.4053411845
  C        14.2911480086       11.8941029095       13.6391253708
  C        14.1474777136       10.5245707628       13.8017696843
  H        11.8070982031        9.7057685151        2.8160485465
  H        12.5626313278       10.9054204573        1.8884744186
  C        12.9290533350        9.0613130115        1.1889616242
  S        17.6801615883       18.4103311321        3.2142931228
  N        18.0362744913       17.8040646512        1.7113648340
  C        18.6909786992       15.6801603829        0.7697116823
  H        19.2470210358       13.6184893974        0.3364123425
  H        13.6939756841       15.3255428980       11.2810048022
  H        13.1842662832       14.4786371938       12.5632002284
  C        12.5073263766       13.6148780067       10.6313215729
  H        16.3677176261       15.1530140142       11.7204604003
  H        15.6153185043       14.9307585822       13.2707111454
  C        17.2356712841       13.6624157714       12.7785361545
  H        14.2650309568       12.6917856157       14.3942540081
  C        13.8544694902        9.7400781620       15.1186106549
  H        11.9591569233        8.6342031868        0.9636434235
  H        13.4291872001        8.1280651929        1.5103319338
  C        13.6990200041        9.6544697115        0.0892787199
  C        18.9006575924       16.1880432293       -0.5750495924
  H        12.6419403744       13.7314136613        9.5625968723
  H        12.4703770799       12.5325251165       10.7299444287
  C        11.1039413913       14.1102329097       10.8826965401
  H        17.7463897171       13.2416489141       11.8828904098
  H        16.9723935872       12.8593474177       13.4756206535
  C        18.2633416775       14.4917972007       13.5537728001
  C        13.8106261286        8.3565541455       15.3085864805
  C        13.7293259835       10.6212058700       16.3084916481
  H        13.5952928408       10.7795229860        0.0955438112
  H        14.7587124990        9.4459703541        0.2512869532
  C        13.2985232124        9.0427229164       -1.2690959640
  H        18.9855961729       17.2973252357       -0.5970776930
  C        19.1341354413       15.6454016477       -1.8140800892
  H        10.9488998532       15.1995279267       10.6794421385
  H        10.8873636486       14.0750814445       11.9844924199
  C        10.1281038288       13.2753537398       10.0477191634
  H        18.5754017988       15.3016833417       12.9423406680
  H        17.8543268409       15.1179936714       14.3858768951
  C        19.4495670928       13.6486967455       13.9796322374
  N        14.0766698578        7.3246311009       14.3257024616
  C        13.6303707595        7.8599624040       16.5485391284
  C        13.4601943938       10.1221929026       17.5784663276
  H        13.8242749597       11.7243685668       16.2468553194
  H        14.0272354217        9.2050338467       -2.0165878283
  H        12.3717234050        9.4573098965       -1.4692631025
  H        13.0530683934        7.9846698410       -1.2698676846
  S        19.2810210340       14.0040479963       -2.2203421207
  C        19.3424190369       16.5900934074       -2.9777096608
  H        10.6691969768       12.6985482336        9.3006545465
  H         9.5570056792       12.5274613910       10.6363019884
  C         8.9808046953       14.0789490637        9.3771219339
  H        19.5452798656       12.7979248672       13.3772277327
  H        19.3420388191       13.3586934311       14.9949725958
  C        20.8662348393       14.2261042329       13.9239889905
  S        14.1651348684        5.9084098696       15.1583256307
  N        13.7338232090        6.4428341771       16.5927903490
  C        13.3660507180        8.6502637399       17.7726676602
  H        13.1350720719       10.7297941936       18.4068284365
  C        19.4637855775       14.5168196081       -3.8485001303
  N        19.6804256295       15.8707925510       -4.0847292417
  O        19.2532007180       17.8421249485       -2.9337432923
  H         8.3928801531       14.6072766183       10.1245718357
  H         9.4918333139       14.7444482967        8.6506014539
  C         8.0819881430       13.1094763074        8.6097278200
  H        21.6455322082       13.5461328936       14.1121292642
  H        21.1176945292       14.4829477825       12.8625157255
  C        21.0489244484       15.4574233242       14.7899579933
  C        13.0634566238        7.8969392368       18.9442478336
  S        20.1430707649       13.3944395895       -5.0489456844
  C        19.9593384227       16.4845664151       -5.3790251831
  H         8.7108596818       12.6328612585        7.8249989495
  H         7.8407697008       12.3619832097        9.3674209751
  C         6.8273701383       13.7647196048        8.0733373730
  H        21.7864039936       15.2163055591       15.5827236840
  H        20.1818658548       15.9025977262       15.3149840895
  C        21.5890853288       16.4935691768       13.8856756763
  H        13.4892375271        6.8781713211       18.9633818203
  C        12.4784917744        8.3163731853       20.1004491042
  H        20.7282367037       15.8575588071       -5.9265319529
  H        20.4088075254       17.4423156345       -5.0593868120
  C        18.5707093261       16.6786382015       -6.0375153438
  H         6.4137184487       13.0098990163        7.4012605589
  H         6.9756726301       14.7680402373        7.6420822939
  C         5.6581340416       13.8436629234        9.0919513960
  H        22.5112388296       16.1241407725       13.3845839389
  H        20.8375105940       16.5988859658       13.0850583904
  C        21.7753510249       17.8037571350       14.6149022127
  S        11.8404383315        9.8926235968       20.4079407274
  C        12.4371216715        7.4085676431       21.2174259267
  H        18.1918287050       17.7065015852       -6.0724851371
  H        17.8086623653       16.2539881145       -5.4206304071
  H        18.4498834914       16.3315523862       -7.0179314772
  H         5.8253169620       14.6048353743        9.8575858236
  H         4.7872976250       14.0781207457        8.4742210299
  H         5.3397430680       12.8762032092        9.5745763109
  H        22.7291270999       17.8783224695       15.0869452353
  H        21.8453625890       18.5229930585       13.7982289964
  H        20.9799218550       17.9635021857       15.3590731310
  C        11.4532812925        9.3311270167       22.1027668210
  N        11.8394472672        8.0467519016       22.2702171318
  O        12.9226129149        6.2781373957       21.2459454159
  S        10.6852397288       10.2139570607       23.3949651955
  C        11.6349584443        7.3308689377       23.5251971164
  H        11.5891526077        6.2688108135       23.3414362792
  H        10.7016274936        7.5683920104       24.1112373604
  C        12.8527490391        7.5878980063       24.4647037574
  H        13.7800318188        7.5832003859       24.0040112155
  H        12.9660779606        6.7321469707       25.1856058917
  H        12.7247195853        8.5055486340       24.9978851230
