352
 i =    42900, time =    42900.000, E =        25.2729084876
  H        11.9496576953        6.9776513822       32.0112426456
  C        11.2680809869        6.0298734419       32.1182414595
  H        11.8481528128        5.2300180314       31.7344788589
  C        10.0985857250        6.1571937449       31.1697165430
  C        10.7505537871        5.7307694336       33.5146129350
  C        10.3119987347        6.3920893072       29.7172015881
  H         9.3658549127        5.3762247840       31.2093273920
  H         9.6282749840        7.0549346683       31.5152945894
  H        11.4002998737        5.9388651685       34.3232981395
  H         9.7355545747        6.1338124143       33.6108734359
  H        10.5349510066        4.6830274897       33.7040701078
  C        10.7416122540        5.2601993130       28.8012548472
  H        11.1971162380        7.0408637863       29.5394782153
  H         9.4302645394        6.8043267266       29.3508659916
  C        10.9965177317        5.7670042869       27.3833495439
  H        11.6035904107        4.7706726504       29.0804473978
  H         9.9061525136        4.4414580888       28.6920425449
  C        10.1133522914        5.1410232810       26.3115539594
  H        12.1085986273        5.5976783649       27.1260190876
  H        10.8099078186        6.8332445984       27.4602672964
  C         8.7484761888        5.9419864133       26.3363574035
  H        10.5162300876        5.1862456720       25.3321167607
  H         9.9760555376        4.0832338871       26.5404836267
  C         7.7434167998        5.2855821682       25.3571694790
  H         8.3775146028        5.9327770847       27.3631097848
  H         8.8604592477        6.9644915987       26.0119081250
  C         7.3475452194        3.9389316248       25.9197621653
  C         8.2080425666        4.6565214609       24.1318275289
  C         6.4223525805        6.1504758418       25.0978156929
  C         7.6316291788        2.8723621774       25.1001484087
  C         6.8331388997        3.5692177772       27.0986991732
  C         8.2063813517        3.3362721629       23.9212091124
  C         8.6036240923        5.4434650058       23.0538630831
  H         6.6016283773        6.7618784556       24.2641534252
  H         6.0698855131        6.6167084811       26.0255753435
  C         5.2087824461        5.2049163512       24.6077734154
  S         7.2279215926        1.3392593925       25.7779754225
  C         6.5842333932        2.2123477015       27.2062215961
  H         6.6862956420        4.2456783820       27.9326909169
  C         8.6279564703        2.8540497341       22.7669784690
  H         8.5519511905        6.5246057947       23.2334464931
  C         9.0473190744        4.9420929794       21.9039051880
  H         5.3711510482        4.9563758613       23.5730116050
  H         4.9690246926        4.3628322747       25.2300663448
  C         3.8894919573        5.9067025257       24.6196629498
  C         6.0484080369        1.5123642911       28.4383216185
  C         9.1142120736        3.5999200831       21.7186076015
  H         8.6957573090        1.7867100196       22.6922834951
  C         9.3758150015        5.3846701352       20.6415062539
  H         3.2278769930        5.2189269329       24.0682666534
  H         4.0148705504        6.8122464059       24.1184611874
  C         3.3365006745        6.2405309363       26.0384294859
  C         5.9984442675        0.1659195518       28.7147377228
  C         5.4319435387        2.3206910027       29.5053408020
  C         9.5301010816        2.9152635472       20.4717470583
  C         9.6407912581        4.3287845474       19.8208408370
  S         9.7237524784        6.8251836336       19.8574854706
  H         2.8791806930        7.2530839619       26.0273069957
  H         4.1263062682        6.4121150521       26.7371452273
  C         2.4473281668        5.0888879007       26.4877092923
  N         6.4153924081       -0.8281399197       27.8064040528
  C         5.6657047638       -0.4416785011       29.9590126116
  C         5.0871965774        1.7582301449       30.7330388217
  H         5.3600880150        3.3756935488       29.4148434272
  C         8.4670531209        2.0402195027       19.7210418217
  C        10.8571603000        2.0965769170       20.5213758127
  C        10.1348980272        4.7074447372       18.5636275736
  C        10.1369774849        6.0439186475       18.4309827531
  H         1.8371694753        4.8145906312       25.6744897422
  H         3.0016382819        4.1570858845       26.8004411402
  C         1.6026913211        5.2141002816       27.7558098320
  S         6.4111961957       -2.2787115496       28.5448580351
  N         5.8423473074       -1.8725563643       29.9475581368
  C         5.3080765778        0.3134500800       31.0958872901
  H         4.6426250199        2.3238454239       31.5228850442
  H         8.2812315518        1.1402758441       20.3811993000
  H         8.8783686807        1.7082620170       18.7386676485
  C         7.1138389784        2.6305914941       19.3668561112
  H        11.1814643984        1.9410837607       19.4803336149
  H        10.7100092713        1.1866819313       21.0210483063
  C        11.9268856384        2.9737064369       21.1003768543
  H        10.4026552166        4.0094937012       17.8100558926
  C        10.2740362377        6.8171656646       17.1268290006
  H         1.1739859972        4.2836207132       28.0322347077
  H         0.8738590493        5.9839879167       27.4286077116
  C         2.3962295674        5.4443323550       29.0770037657
  C         5.0670133711       -0.3073367652       32.3827051775
  H         7.1010246381        3.6909030583       19.3452493850
  H         6.3926913360        2.4773664916       20.1237049805
  C         6.4434699082        2.0273768732       18.1552837850
  H        11.8555113761        3.1850009452       22.1478535710
  H        12.1544526063        3.8983355996       20.6125141729
  C        13.2954348034        2.2210881611       20.9261898912
  C        10.0637971228        8.2130664198       16.8770641117
  C        10.4288480009        5.9814327819       15.9208259180
  H         3.1803311051        4.7712438233       29.1841891495
  H         2.7851102379        6.4235704964       28.9894336920
  C         1.5507551209        5.1851430639       30.3503841158
  H         5.0434741773       -1.3604436631       32.2436110349
  C         4.8315526560        0.1591127526       33.6592535701
  H         6.6654131494        0.9212384073       18.1748314183
  H         6.9189034641        2.3780072502       17.1758333695
  C         4.9075762506        2.3108803592       17.9707683420
  H        13.4194041338        1.3343267478       21.5826504803
  H        13.4182274055        1.8090823291       19.8998731858
  C        14.4819651120        3.0789625856       21.2466165726
  N         9.8296348337        9.2043975363       17.7828836613
  C        10.3368388021        8.7235715387       15.6313850537
  C        10.6082997707        6.5135705884       14.6565616568
  H        10.4427743724        4.9283378610       16.0700791030
  H         0.8258065448        4.4439229721       30.2389496392
  H         2.2630120322        4.8555485992       31.0326317254
  H         1.1257078181        6.1004913563       30.6870442876
  S         4.6396292164        1.7568608168       34.1750106087
  C         4.6627610304       -0.9180362980       34.6783174302
  H         4.6874213890        3.1584557892       18.5799087717
  H         4.6833431947        2.7946935324       16.9953196424
  C         3.8521060645        1.1459822840       18.2221021064
  H        14.3224103014        4.1394558867       21.1094156216
  H        15.2440906601        2.7954038894       20.5607155204
  C        14.8539941890        2.9551082657       22.7503154157
  S         9.7062066838       10.6243647186       17.0054438656
  N        10.3390047171       10.1218718512       15.6281000060
  C        10.6659873329        7.9471747830       14.4976939619
  H        10.9036099019        5.8449214092       13.7945219446
  C         4.4243962932        1.0234613178       35.7748455895
  N         4.3635828060       -0.3305394732       35.8476712041
  O         4.8873075898       -2.1015618871       34.4550013069
  H         2.9708743123        1.7390529097       18.0698603550
  H         3.9615996290        0.8750060532       19.2506350012
  C         3.9690611584       -0.0007053121       17.2255737130
  H        15.3922418027        3.9080336878       22.9398472179
  H        13.9915837707        3.0990400824       23.3532057465
  C        15.6908151498        1.7376987253       23.0856769318
  C        10.8069574236        8.5981860614       13.2012318996
  S         4.0216779398        1.9957057608       37.1913341624
  C         4.3871361560       -1.1656897155       37.0451316720
  H         3.7878885341        0.2794677175       16.1612685543
  H         5.0409224303       -0.1339820422       17.2223966291
  C         3.3880001933       -1.3645020591       17.4910732585
  H        15.5802812939        0.9143521392       22.2917998413
  H        15.2698352551        1.4021412103       24.0563119052
  C        17.1978769898        2.0980531614       23.3206243819
  H        10.4591999260        9.6205293767       13.0814560676
  C        11.3519084969        8.1871422376       12.0055785392
  H         3.9157399995       -0.6468343584       37.8060860864
  H         3.8442040688       -2.0752813152       36.8879840469
  C         5.9157705549       -1.3331498650       37.4930814684
  H         3.7005531753       -1.5934836452       18.4971310776
  H         3.9077319562       -2.0391696211       16.7711274594
  C         1.8775077965       -1.5886847359       17.4113203980
  H        17.3149480039        2.6765193841       24.2670069884
  H        17.8887284058        1.2780327941       23.4113201549
  C        17.8062957426        2.8807587928       22.1552837955
  S        11.9833557122        6.5647012851       11.5804361756
  C        11.5702138306        9.1727636706       11.0049998622
  H         6.0591574843       -2.3326615916       37.8669591158
  H         6.6337945810       -1.0294967417       36.7262317201
  H         6.1119171494       -0.6925403957       38.3029723803
  H         1.5764922301       -2.5768915851       17.3404165669
  H         1.4911887217       -1.0274061823       16.6019060815
  H         1.5099780789       -1.1719766521       18.3978185049
  H        18.8907493394        2.7688605182       22.2672696328
  H        17.6273346018        3.9477930857       22.1565531181
  H        17.5578600210        2.4233736816       21.1860251645
  C        12.5876159189        7.3747852520       10.1235563022
  N        12.2739238895        8.6573944068        9.9491198216
  O        11.2113794126       10.3148444491       10.9949901444
  S        13.4489413992        6.5771621406        8.9038877167
  C        12.5182216524        9.4927073891        8.7972591992
  H        12.7033940197       10.5261731056        9.0749117500
  H        13.5417953380        9.2319321721        8.4157579051
  C        11.4791944535        9.2910595266        7.6928273890
  H        10.5330602543        8.9488749430        8.1010240178
  H        11.2734490866       10.2245479721        7.1086114852
  H        11.9586852146        8.6108496353        6.9919582278
  H        21.0058351913       11.6023832330        3.4016056595
  C        21.3811518331       10.5853633003        3.2397134197
  H        20.5539971193        9.9906565920        3.5274919894
  C        22.4463525129       10.3891912590        4.3339139290
  C        21.7833632407       10.3247547080        1.8044432645
  C        21.9697401541       10.5952731541        5.7898817104
  H        22.9575814805        9.3613092628        4.3034741373
  H        23.2408951492       11.2026523831        4.2452838771
  H        21.0113476677       10.1878354791        1.1074641298
  H        22.5099513716        9.5015032925        1.6942886985
  H        22.2608218433       11.2643449462        1.5392097210
  C        21.1624032040        9.4172956635        6.3659028284
  H        22.7414638566       10.8349896910        6.4602844629
  H        21.2777608748       11.4843817176        5.7583767670
  C        20.4558324646        9.6221080408        7.7064120798
  H        21.8347091189        8.5778652170        6.3807436798
  H        20.4879706463        9.1439422021        5.4793939649
  C        19.1711493023       10.4560516309        7.5162121252
  H        21.1457314593       10.1923652444        8.3676049807
  H        20.2169686711        8.7292452378        8.2849634995
  C        17.9173820007        9.7776364588        6.9564614321
  H        18.9025510751       11.0278089499        8.3603159007
  H        19.5378493688       11.2121345654        6.8809646331
  C        16.6991525563       10.8659425772        6.8529197460
  H        17.5634831035        8.9316544074        7.6089733241
  H        18.0846884643        9.3178430890        5.9644089973
  C        17.1325929571       12.1767424834        6.2515156533
  C        16.2301764069       11.5387300598        8.1204372367
  C        15.5234052483       10.1248543489        6.0589849269
  C        16.7207881251       13.2469250754        7.0567918783
  C        17.8021030947       12.6113309495        5.0772639299
  C        16.2082285863       12.9017559491        8.2567937820
  C        15.7652039061       10.7609419049        9.2669557225
  H        16.0114734301        9.6152279569        5.2331682271
  H        15.1867716962        9.2410078589        6.5809202785
  C        14.3550726566       11.0274502611        5.7852420574
  S        16.8978160284       14.7936387051        6.2232300409
  C        17.6561855823       13.9585318180        4.8861040464
  H        18.2904105115       11.8980118493        4.4948304849
  C        15.8055696167       13.5092067985        9.4032649119
  H        15.7513303728        9.6905862597        9.1779662863
  C        15.4127504674       11.4312574595       10.4305152391
  H        14.6874813527       12.0281940967        5.3794512417
  H        13.8283739335       11.2206621035        6.7705088299
  C        13.3691859776       10.3320051309        4.8307855308
  C        18.0215109089       14.5965665099        3.5768437384
  C        15.4212042404       12.7767232656       10.5203917744
  H        15.8699243328       14.6416236014        9.4011495117
  C        14.9530578234       11.0776985786       11.6690741668
  H        12.4200463822       10.9367271750        4.8381037602
  H        13.0951691488        9.3173327384        5.1497901688
  C        13.8712931961       10.2209988991        3.3351798519
  C        17.9418557709       15.9619176509        3.2085670055
  C        18.5358733069       13.7086204632        2.5193177661
  C        15.0067692676       13.5081097357       11.6942975503
  C        14.6583246579       12.2158584276       12.3873563054
  S        14.5985146923        9.6062314976       12.5105212612
  H        14.4646825453        9.3765590751        3.1398785886
  H        14.5110108359       11.1128130762        3.1622425649
  C        12.7035610061       10.3816208458        2.3927443953
  N        17.4341439902       17.0020550009        4.0245680439
  C        18.2663650149       16.4118910236        1.9438429098
  C        18.8399034765       14.1279821642        1.2368482620
  H        18.6331192686       12.6200130825        2.6950143022
  C        13.7697455693       14.3555370541       11.4842370714
  C        16.1024918118       14.2233595504       12.4025154294
  C        14.1685659328       11.9526226257       13.6174111205
  C        14.1652933643       10.5532866736       13.9016473312
  H        11.7793093991       10.3445220043        2.9325214242
  H        12.8644569878       11.3734013627        2.0157517709
  C        12.6685621215        9.3573347257        1.2119007471
  S        17.4650814782       18.4363291249        3.2350213414
  N        18.1353057907       17.8786315948        1.8524106937
  C        18.6819491528       15.5763438565        0.8826472046
  H        18.9719480490       13.3559072880        0.4802392951
  H        14.0590409272       15.3068086840       11.1137414631
  H        13.3340015718       14.6355033180       12.3975980636
  C        12.7609837664       13.6645477597       10.5643620826
  H        16.3853701395       15.0661846920       11.7443979167
  H        15.6867251592       14.7342097033       13.2844334988
  C        17.3783060111       13.4713069176       12.7956347356
  H        13.9678232355       12.7492360244       14.3177167486
  C        13.8518415608        9.8207511394       15.1399044971
  H        11.6924809909        8.8815050023        1.2075292347
  H        13.2452748393        8.4456951095        1.4349211843
  C        13.0900347809       10.0527308459       -0.1160678249
  C        18.9577726088       16.1184329336       -0.3645662066
  H        13.1058540730       13.7729213599        9.5246815349
  H        12.7765210054       12.5904408008       10.6792054022
  C        11.3396467520       14.1567703033       10.7810909239
  H        17.8007445858       12.9395492390       11.9191766830
  H        17.1538997152       12.7313483547       13.5534959321
  C        18.4042845907       14.4154000215       13.3011445574
  C        13.8404518376        8.4428399099       15.3857174249
  C        13.4876421925       10.6449924340       16.3135101885
  H        12.5359829591       10.9935276049       -0.3553124893
  H        14.1399614502       10.3959273212        0.1208136222
  C        13.2939901802        9.0707258629       -1.2940415953
  H        19.0526224980       17.2144759048       -0.3713736908
  C        19.2129036766       15.6719966533       -1.6628048247
  H        11.2610284355       15.2011950840       10.4167661809
  H        11.1044763609       14.2603627067       11.8780941614
  C        10.2815761194       13.1578189454       10.1810797606
  H        18.6530239952       15.0571906226       12.4521993698
  H        18.0701466976       15.1106794414       14.1111437617
  C        19.6415450758       13.8551132341       13.8943165861
  N        14.1123011586        7.4311880458       14.4297605794
  C        13.5166549882        7.8307077769       16.6110079792
  C        13.3056949352       10.0467512386       17.5473417743
  H        13.5694727946       11.6733845403       16.2741934820
  H        13.3574104733        8.0225086321       -0.9543585369
  H        14.1160067264        9.2223844435       -1.8853053830
  H        12.5094844285        9.2271390970       -2.0146837996
  S        19.4418045507       14.0146833396       -2.1106248794
  C        19.4630271832       16.6876244726       -2.7093744811
  H        10.7969384524       12.5368624491        9.4334043520
  H         9.8338008283       12.5194493296       10.9713822555
  C         9.2938081052       13.9826735859        9.3673050422
  H        19.7394144801       12.9283364998       13.3920687757
  H        19.5343071133       13.7276218953       14.9452784096
  C        20.9400684133       14.5668971653       13.6085420177
  S        14.0875850080        5.9618124678       15.1575172801
  N        13.6256678917        6.4119749102       16.6362351850
  C        13.3391586577        8.5722780701       17.7635156792
  H        13.1444021654       10.6365588516       18.4145825819
  C        19.6459235526       14.6863451096       -3.7452976037
  N        19.6681494936       16.0039616058       -3.8756917549
  O        19.3218576500       17.8822795024       -2.6017876843
  H         8.6401897309       14.4508322750       10.1541000998
  H         9.8384366672       14.7308400257        8.7563892055
  C         8.3456602558       13.0680147673        8.5812239215
  H        21.6968390202       13.8843157458       13.4129938610
  H        20.8158964804       15.1612188857       12.6599956577
  C        21.4718495859       15.5641976461       14.5925251136
  C        13.0981494716        7.9305454698       19.0653411854
  S        20.0006519692       13.6657282867       -5.1007884647
  C        19.7590975627       16.6710499086       -5.1009329331
  H         8.8332274739       12.9460736123        7.6052208191
  H         8.2325336187       12.0937770413        9.0829004326
  C         7.0215681343       13.8738000978        8.2818813267
  H        22.4667465161       15.3272206297       14.9831847934
  H        20.8150523339       15.4707450105       15.4627182602
  C        21.4086459532       16.8727438804       13.8368590407
  H        13.3509121187        6.8648124260       19.0805346152
  C        12.6317872815        8.4137797600       20.2100826475
  H        20.5833974983       16.1927722786       -5.7091948877
  H        20.0031395430       17.7551260829       -5.1099723164
  C        18.4138404105       16.5290383202       -5.6865510553
  H         6.5975448439       13.3932796556        7.3744997814
  H         7.1867377713       14.9761229091        8.2526750949
  C         5.8188136667       13.5659804137        9.2635559228
  H        22.1237670585       16.8167933837       12.9515514924
  H        20.4332170452       17.1072537445       13.3910406977
  C        21.8236688841       17.9993019241       14.8056551902
  S        12.0148286899        9.9739601518       20.5587388226
  C        12.5942906751        7.4694384583       21.3543835017
  H        17.7607800498       17.3971924059       -5.4804398577
  H        17.7979044566       15.6930922176       -5.3972050099
  H        18.5154088895       16.6120163140       -6.7342875714
  H         6.0131612047       13.8783600157       10.3044336075
  H         4.9045367100       14.0344089629        8.9083726749
  H         5.6007308535       12.4982153950        9.2134588666
  H        22.0653879007       17.6070130763       15.7962989114
  H        22.7170169903       18.4962488274       14.4270916962
  H        20.9060561910       18.5970110751       14.8800999559
  C        11.5392570881        9.3010101423       22.1113476328
  N        11.8596105001        7.9825312484       22.3600128537
  O        13.0809344065        6.3128994452       21.3412664700
  S        10.4109721608       10.0820169141       23.3051951624
  C        11.6871771529        7.2231720035       23.6034040288
  H        11.5216935340        6.2181322650       23.4620670428
  H        10.8032387073        7.5140683598       24.2123684867
  C        12.9747580551        7.3689364367       24.4479919395
  H        13.7766116656        6.6729406304       24.2216346822
  H        12.7764076732        7.2188935727       25.5699411210
  H        13.3810167088        8.3998297384       24.2968575885
