352
 i =     7400, time =     7400.000, E =        25.6665408395
  H        12.3087260137        7.3261040289       32.6700758642
  C        11.7543404249        6.3859751066       32.3217135986
  H        12.6360853355        5.7858938158       31.9680225689
  C        10.8296022452        6.6069135347       31.2306831587
  C        11.1767290091        5.7231481547       33.6212925306
  C        10.8486045160        5.4827517825       30.1709819768
  H         9.8179113067        6.8131658290       31.6589259409
  H        11.0911592977        7.5673337563       30.7173751868
  H        10.8642976870        4.7215004777       33.4605078504
  H        11.8278795406        5.8189456046       34.4784493213
  H        10.2473478474        6.2991721632       33.8731275818
  C         9.8784081913        5.7864763667       28.9923931846
  H        10.5437451220        4.5240612439       30.5431114423
  H        11.9038582964        5.3620540606       29.8881089251
  C        10.5775477802        5.5175164696       27.5859639990
  H         9.0285715857        5.1225513671       29.0443837123
  H         9.3671666390        6.6994563673       28.9409405454
  C         9.6855044426        4.8540663201       26.5899383298
  H        11.4650224817        4.8947599734       27.7321542083
  H        11.0510530233        6.3695574519       27.1091089143
  C         8.4540152649        5.7551483058       26.3750106345
  H        10.0665085225        4.6910742652       25.5845567392
  H         9.3387840705        3.8817822871       26.9858462480
  C         7.3356948150        5.0375384527       25.5584518108
  H         7.9815289647        6.1455411066       27.2752443999
  H         8.7732009613        6.6214245066       25.8072487335
  C         6.8975480250        3.6878291139       26.2244540118
  C         7.7015546063        4.2912172235       24.3314785519
  C         6.1467805806        5.9568964029       25.3814383747
  C         7.1379756485        2.5610440191       25.4042994810
  C         6.4437570402        3.3316678032       27.4869704971
  C         7.5912625054        2.9718469310       24.2045668361
  C         8.1219942343        5.0585322309       23.2126602704
  H         6.4598888444        6.8965015127       24.9312030572
  H         5.7099617290        6.3405052004       26.3035153258
  C         4.9623216504        5.2974529438       24.6436158930
  S         6.7986292477        1.0840529192       26.2166890255
  C         6.3011733842        1.9753842264       27.5791525004
  H         6.2003724924        4.1428729919       28.1614256503
  C         8.0259570227        2.4193322128       23.0071013548
  H         7.9777607325        6.1254339173       23.2618127287
  C         8.4437758022        4.5233635714       22.0115847307
  H         5.2264328487        4.8605306213       23.6880191111
  H         4.7365423835        4.3840399688       25.1729010413
  C         3.6785976218        6.0955518080       24.4954074177
  C         6.0207411856        1.2829364224       28.8538228378
  C         8.3335495234        3.1892808027       21.9148777716
  H         8.1809936502        1.2830256286       22.9198400493
  C         8.7518063213        4.8520412892       20.6992496518
  H         2.8779081199        5.7573979337       23.8474746626
  H         4.0251432037        7.1268258205       24.0661140939
  C         2.9173099582        6.4463549906       25.7786902818
  C         6.0009596151       -0.1416865434       29.1002230465
  C         5.6900908057        2.0758119468       30.0986186386
  C         8.7975911980        2.4772545840       20.6262283986
  C         8.9469831732        3.8044115430       19.8845045325
  S         9.1818033527        6.3317266238       19.9550295465
  H         2.2622682905        7.2954737417       25.5766198377
  H         3.5250409823        6.7277306296       26.6877883999
  C         2.0892232207        5.1889194297       26.1837094934
  N         6.2596432699       -1.1338502784       28.1195193208
  C         5.7121513496       -0.7060463157       30.3274276391
  C         5.3732535630        1.5666573929       31.3117216403
  H         5.6645529089        3.1481624639       29.9439619415
  C         7.6587810679        1.5755743876       20.0006673266
  C        10.1538334894        1.7906940518       20.7857966842
  C         9.1240647828        4.1703409417       18.5738377366
  C         9.3833650181        5.4920422705       18.4325121661
  H         1.3447117824        4.8420553074       25.3934952168
  H         2.7806152964        4.2997835673       26.4174176851
  C         1.2156881785        5.5991760635       27.3436655210
  S         6.3798865909       -2.5823201238       28.9259790105
  N         5.9064899413       -2.0881736565       30.4080150247
  C         5.4106369663        0.0443901957       31.4856953481
  H         5.2799133018        2.1809920618       32.1245296870
  H         7.3053811324        0.7223182355       20.6206288804
  H         7.9594585506        1.1147401354       19.0907385107
  C         6.3027976421        2.2844677385       19.7518562163
  H        10.6069809179        1.4411544535       19.8828683542
  H        10.1108143439        0.8704336865       21.3290179386
  C        11.2984219225        2.4962888039       21.5316416990
  H         9.1889909120        3.4339118945       17.7688393363
  C         9.8622665721        6.2353488590       17.2034758369
  H         0.5059556139        4.7993143095       27.5927676684
  H         0.5407079174        6.4026440535       27.0581404845
  C         1.9220567794        5.9321806043       28.6269752629
  C         5.2562468677       -0.5976669604       32.7313534063
  H         6.5106473927        2.8731102109       18.8777604424
  H         5.8519350854        2.8133001219       20.5607679942
  C         5.2475216164        1.3053415135       19.3018732550
  H        10.8722734383        2.6822599752       22.4989846909
  H        11.4468253840        3.4747893988       21.1137797884
  C        12.6553131768        1.7448003884       21.5889563944
  C        10.0549282665        7.6357050916       17.0808070704
  C        10.1658353673        5.5097247022       15.9351953279
  H         2.7513949354        5.2490396533       28.8844367416
  H         2.4406722412        6.9116755530       28.4332833652
  C         0.9946670459        6.1497975472       29.7975462096
  H         5.5340812122       -1.5956843593       32.7614160977
  C         4.9043130438       -0.1356886688       33.9546999558
  H         5.0530234142        0.5259984244       20.0287616542
  H         5.5370209454        0.8737079579       18.3799422769
  C         3.9216417072        1.9397121058       18.9547048183
  H        12.5203257487        0.7301025158       21.9543313065
  H        13.0968022870        1.7653684887       20.6022138063
  C        13.6690615942        2.4090871395       22.6108336144
  N         9.7413416832        8.5900905588       18.0942818077
  C        10.4684946183        8.2764337035       15.8923856991
  C        10.6295653041        6.1455953438       14.8176978600
  H         9.7772632121        4.5128628978       15.9834594864
  H         0.2497788082        5.4873759741       29.8206891464
  H         1.4829650932        6.1432296870       30.7969971203
  H         0.4206004149        7.0934034080       29.7189899841
  S         4.5912201892        1.5264190737       34.3829430094
  C         4.8369288931       -1.1253765042       35.0991134733
  H         3.7102881690        2.7438282292       19.6721981210
  H         3.8977911058        2.4457717628       17.9352403084
  C         2.7613095711        0.8470712105       18.9402115802
  H        13.1652782781        2.5674317911       23.5650724943
  H        13.8346933862        3.4315689481       22.2045850654
  C        14.9560599315        1.5429238603       22.8823584899
  S        10.0053335936       10.1262006956       17.4651631661
  N        10.5262150014        9.7112498663       15.9923827291
  C        10.7266880753        7.6238779377       14.7076747825
  H        10.7922127794        5.5759055091       13.9955904925
  C         4.3957756864        0.8820011490       36.0448739523
  N         4.5333680819       -0.4548068931       36.2325763827
  O         4.9033176526       -2.3668755801       34.9154805229
  H         1.7907770842        1.3525502564       18.9290477982
  H         2.7810739878        0.3088749810       19.8882579733
  C         2.7111215773       -0.1437025856       17.8039853030
  H        14.6424017010        0.8569363145       23.7562227041
  H        15.1605362043        0.9844475281       21.9894842832
  C        16.0800441892        2.5810454299       23.1918795843
  C        11.1358330462        8.3686411658       13.5263843472
  S         4.1234746046        1.8924789486       37.4687167086
  C         4.4702031635       -1.0863637290       37.5817109129
  H         1.6095507188       -0.4296584637       17.7008056071
  H         2.8042594008        0.3299635284       16.7821537893
  C         3.6466275747       -1.3483927580       17.9217926830
  H        15.9395289702        3.0402621372       24.2196073508
  H        16.1891730180        3.5337432163       22.5781433502
  C        17.3643167767        1.7652453063       23.0409092222
  H        10.7669026298        9.2813839600       13.5198614451
  C        11.7307064813        7.9777502004       12.3460756199
  H         3.8462464740       -0.5290808896       38.2065673414
  H         4.1622374574       -2.1553352931       37.4835798937
  C         5.8554662734       -1.0826732733       38.2560138446
  H         3.4104876280       -1.7437651802       18.9290591674
  H         4.6800931568       -1.0708190031       17.7122432209
  C         3.2151233430       -2.3755162064       16.9785852621
  H        18.0368826430        2.1596786353       23.7916095115
  H        17.1750967210        0.7543772398       23.3885856426
  C        17.9403084140        1.9524947005       21.6160842605
  S        12.2650411366        6.4792418206       12.0457014988
  C        11.8059790296        8.9674633786       11.2534947583
  H         6.1652131819       -0.0643301575       38.4729121311
  H         5.7741207456       -1.5914243904       39.1797293691
  H         6.6318594522       -1.5270445048       37.6537844670
  H         2.3272941446       -2.9696770382       17.2670786106
  H         4.1417382447       -2.9599530094       16.8341197258
  H         2.9709678576       -1.9513399047       15.9462818637
  H        19.0956608777        1.7305579631       21.6737821249
  H        17.9084740599        2.9583360187       21.1155591159
  H        17.4387971869        1.2355051641       20.9218967427
  C        12.6985190284        7.0780757074       10.4084995057
  N        12.4169796955        8.3389957280       10.2028996029
  O        11.5312603584       10.1698598522       11.3803176021
  S        13.5057196102        6.2011039860        9.0407461423
  C        12.6681977263        9.1560985897        8.9907201729
  H        12.8113489007       10.2019046264        9.2349135062
  H        13.6267554679        8.9287909659        8.5664734637
  C        11.6045694183        8.9377293060        7.9186919186
  H        12.0488240595        8.3520920482        7.1379595010
  H        10.7407409972        8.4075730487        8.4436456015
  H        11.2178307363        9.9368968263        7.6086422492
  H        21.1148136993       11.4965559842        3.2909335969
  C        21.4192849620       10.4919533988        3.4703579771
  H        20.4882177633        9.9460041641        3.8252453842
  C        22.5061263676       10.4039491409        4.5568315398
  C        21.9525374481        9.9714861574        2.0946956545
  C        21.9174048611       10.8227571302        5.9367260065
  H        22.8268464723        9.3800001561        4.6566602030
  H        23.3852123832       11.0461110948        4.3757041697
  H        22.4022326617        8.9793417373        2.0397939561
  H        22.8435246444       10.5587688078        1.9181149459
  H        21.3718401351       10.2889291504        1.2526672526
  C        21.2530191586        9.6016758034        6.6114125731
  H        22.7383864861       11.1747616927        6.6406597184
  H        21.2261753626       11.5980548636        5.7995930081
  C        20.5145721249        9.8797396430        7.9106201941
  H        21.9598322335        8.7419685002        6.7044900163
  H        20.6347323542        9.1699063896        5.8871807335
  C        19.2218158081       10.6667384904        7.6841971109
  H        21.2970769223       10.4269262429        8.6151239439
  H        20.3614225225        8.9768990826        8.4559101031
  C        17.9743418685        9.8068355555        7.2818884941
  H        18.9211092061       11.2109137907        8.5674497950
  H        19.3811224905       11.3506225955        6.8179079446
  C        16.6975122592       10.6953662252        7.0763185232
  H        17.8859451340        9.0019242098        8.0460210678
  H        18.2027903823        9.3441157913        6.3402992252
  C        17.0366122417       12.0283792058        6.3855420017
  C        16.2798366497       11.4369914235        8.2917197301
  C        15.5979969514       10.0049098639        6.2444049359
  C        16.8047013586       13.1313888980        7.2229241177
  C        17.5684534127       12.3358608509        5.1266421488
  C        16.2692098643       12.7941238874        8.3732512954
  C        15.7531811692       10.7827053510        9.3848580770
  H        15.9567913238        9.5699901450        5.3411363862
  H        15.4287962789        9.0833500091        6.8071523563
  C        14.3488067395       10.8893035190        5.9810854282
  S        17.1862200074       14.6423059576        6.4349110437
  C        17.8104296785       13.6954336904        5.0490130309
  H        17.6438323236       11.4658135320        4.3855417839
  C        15.9542539429       13.3832393662        9.5935315504
  H        15.7670462776        9.7125431912        9.3144333285
  C        15.4649310073       11.3390494620       10.6168910493
  H        14.6104142718       11.8563970851        5.5953469091
  H        13.9181371943       11.0045178543        6.9847465158
  C        13.3430674944       10.2367595495        4.9858578457
  C        18.2830416657       14.4674573300        3.7954664617
  C        15.4751702647       12.6728817301       10.7512707577
  H        16.1801711671       14.4076141337        9.6387154245
  C        15.1135225380       10.9494803516       11.8676455219
  H        12.4180841215       10.8090064521        4.9127500461
  H        13.0187937220        9.2884020413        5.4741141096
  C        13.8364924388       10.0215070402        3.5546518179
  C        18.3830166294       15.8436603483        3.5665480402
  C        18.6556569160       13.6411851384        2.6198663104
  C        15.1495980966       13.4196450211       12.0365925382
  C        14.9558361220       12.0507046275       12.7216930710
  S        14.9376712916        9.4036867563       12.7186361556
  H        14.6187170775        9.2775083024        3.6314327231
  H        14.2962123567       10.9710575487        3.1514898970
  C        12.6792552133        9.7684848288        2.5617584644
  N        18.1131997069       16.8020581531        4.5389322266
  C        18.6353676744       16.3973572547        2.3086808256
  C        18.9674890213       14.2638977775        1.3752644968
  H        18.6691731994       12.5550983804        2.6349480215
  C        13.8658171244       14.2843837083       11.8702297309
  C        16.2427150843       14.2945857345       12.6482548712
  C        14.6251721943       11.6392943472       14.0208305564
  C        14.4161585743       10.2785411889       14.1896039339
  H        12.1444280284        8.8749021566        2.8441186187
  H        12.0180126321       10.5967155104        2.6020619943
  C        13.2357841431        9.6345989893        1.0741419709
  S        18.1549278031       18.2550677372        3.8856129145
  N        18.6308934572       17.7954029002        2.3949212560
  C        18.9192909961       15.7322978816        1.1892325458
  H        19.1947667487       13.6905269664        0.4942416834
  H        14.0972696487       15.1294004432       11.2027910144
  H        13.5487858804       14.6799272349       12.8077091539
  C        12.6673062599       13.5915155097       11.2893574693
  H        16.5386401155       14.8789081084       11.8318437718
  H        15.8113751268       14.9928876688       13.3236809719
  C        17.5079930583       13.4288892552       13.1688937504
  H        14.3298146601       12.3846088498       14.7538321456
  C        14.0648473026        9.5428964313       15.4533731142
  H        13.6396713974        8.5984584388        1.1652113869
  H        14.0871944111       10.2927772736        0.9570336972
  C        12.1660767456        9.7661242540        0.0437712572
  C        19.0386099932       16.4215778179       -0.0445630787
  H        12.7151794583       13.6179598464       10.2033913210
  H        12.5925815271       12.5108622477       11.5488478586
  C        11.3512603140       14.2754859978       11.7003470645
  H        18.0004887823       12.9404083732       12.4098463715
  H        17.2312628028       12.6087714631       13.8569537450
  C        18.4839169411       14.3261329177       13.9623731562
  C        13.9149410165        8.0978385900       15.5578482606
  C        13.6159030218       10.2655823711       16.6620410191
  H        11.8784817352        8.7559027639       -0.1942024307
  H        11.3601128486       10.3540758218        0.4612313288
  C        12.6137637511       10.4621768218       -1.2592673214
  H        18.9641035935       17.5612466555        0.0830158175
  C        19.2101519652       15.9885982225       -1.3325426169
  H        11.2438135068       15.2728006389       11.3277044351
  H        11.2471051879       14.2516503529       12.7686231655
  C        10.2275693386       13.3911748171       11.3086103515
  H        18.7472038091       15.1084216748       13.2225406071
  H        18.1243557045       14.8755744821       14.8317045580
  C        19.8312317021       13.6242555896       14.4197626961
  N        14.1965043889        7.1909228309       14.4735363838
  C        13.6086494341        7.4617316197       16.7371088187
  C        13.2555229101        9.6115232664       17.8760169109
  H        13.5659353502       11.2634375438       16.6165409136
  H        12.6664635060       11.5862680761       -1.3220074160
  H        11.9829131902        9.9946809379       -2.0277346753
  H        13.6133048150       10.0633180547       -1.5749518153
  S        19.4685911722       14.3775582345       -1.8206018534
  C        19.2558166659       17.0209053285       -2.4104705165
  H        10.3703817655       12.3446555034       11.4807135086
  H         9.3902798352       13.5911347925       11.9470939777
  C         9.8898278573       13.5307998161        9.7724647338
  H        19.9040787424       12.7843028926       13.6709473568
  H        19.5414469341       13.1281739962       15.3975444719
  C        20.9776797030       14.5147233451       14.2416072221
  S        14.2432309464        5.7293591039       15.2016197725
  N        13.6402178167        6.0742294915       16.6188958494
  C        13.3026206060        8.1321150791       17.9561249164
  H        13.0523331366       10.2467878529       18.7686479496
  C        19.5357676976       15.0823747111       -3.4707378606
  N        19.5857870338       16.4487532876       -3.5847442494
  O        19.2169499046       18.2769401638       -2.2330999241
  H        10.0588343807       14.5648659994        9.4018774125
  H        10.6698213992       13.0552981209        9.1835064012
  C         8.4813246628       12.9973681352        9.4820981834
  H        21.9267753464       13.9006750913       14.3948047003
  H        20.9392134678       14.8816918962       13.1773816346
  C        20.9123526370       15.6275635758       15.2906600875
  C        12.9369272886        7.3161175927       19.1136937629
  S        19.9907829412       14.2132849883       -4.8901706007
  C        19.5650841358       17.2134202515       -4.7803660017
  H         8.4193291289       12.7077797826        8.4576064364
  H         8.1989927518       12.0603038108        9.9869198160
  C         7.3773591982       13.9815385756        9.7187866864
  H        20.9388041660       15.1594127160       16.2982014472
  H        19.9862504602       16.2147958210       15.2433334231
  C        22.0392127953       16.7276221141       15.3258202844
  H        13.2377862561        6.3017761286       19.0852729079
  C        12.3878936908        7.6251758280       20.3321393477
  H        20.3588354916       16.7821872111       -5.4704117135
  H        19.8239132846       18.2449280157       -4.5277921698
  C        18.1665784522       17.2836036704       -5.4283791070
  H         7.4087335107       14.6679643168        8.9215387643
  H         7.6912527170       14.5156293196       10.6307605024
  C         5.9428532272       13.5151237308        9.7916827787
  H        22.1037135442       17.2459979256       16.2455098033
  H        22.9388431586       16.1949471183       15.3176198356
  C        21.8563060571       17.8123573637       14.2273056235
  S        11.8173212841        9.1981135407       20.7407459022
  C        12.3147573700        6.5428550131       21.3310250902
  H        17.8585067507       18.3090130705       -5.8020440308
  H        17.2721873483       17.0143986404       -4.7899199744
  H        18.0291421714       16.5871591890       -6.3036313813
  H         5.5859057004       13.3669450639        8.7782372381
  H         5.8750477056       12.5121689618       10.3103287551
  H         5.3108188430       14.2194404313       10.3598470682
  H        22.2293378927       18.7644188639       14.6189901730
  H        22.4138914428       17.4406155175       13.3169028853
  H        20.8761788891       18.0324265629       13.8472395043
  C        11.6665938137        8.4823461177       22.3438181244
  N        11.9152834539        7.1420277018       22.4730736626
  O        12.7886505330        5.4312887894       21.2179095820
  S        11.4314602816        9.3624722252       23.9190641143
  C        11.8543305953        6.3509744171       23.6954920752
  H        11.3084542997        5.4434170774       23.5184662894
  H        11.2096476214        6.8302541152       24.4436985405
  C        13.1476891127        6.1311142412       24.4594103448
  H        13.7024283205        5.3180186868       23.9601964922
  H        12.9418044082        5.8898932652       25.5674504625
  H        13.7232811742        7.0523146748       24.3666337580
