352
 i =    34500, time =    34500.000, E =        24.5193602353
  H        11.5592146138        8.3758020800       32.3820078840
  C        11.5874964530        7.3521697410       31.8662815512
  H        12.6157252945        7.0717049368       31.6338292019
  C        10.7377032053        7.3349121799       30.6044522104
  C        11.0603748302        6.3483881536       32.8622676651
  C        11.2314912928        6.3211064645       29.5769688594
  H         9.7616369461        7.0975248826       30.9188702070
  H        10.5254072086        8.3101897426       30.1424583616
  H        11.3767903946        6.6637980902       33.8579373835
  H         9.9402897157        6.2006094348       32.9344541168
  H        11.5035308268        5.3630962715       32.8392606275
  C        10.0975245144        5.9290912540       28.6072550713
  H        11.6771433742        5.4123928739       30.0139515432
  H        12.1356502200        6.7803446405       29.1161805592
  C        10.6771579971        5.7420242746       27.1489634666
  H         9.5616832864        4.9864573992       28.8875491947
  H         9.4379329874        6.7610783600       28.5106075283
  C         9.6909800494        5.2517076766       26.0464553142
  H        11.4488934847        4.9633262012       27.1200903552
  H        11.2464736612        6.6197385909       26.8537237886
  C         8.4492197906        6.1556833961       25.7598528565
  H        10.2240806009        5.0061155235       25.1001420606
  H         9.3352583852        4.3095583764       26.4270062112
  C         7.3187964080        5.2520897588       25.1969732157
  H         8.0359074238        6.5118448722       26.6593671885
  H         8.5890156599        7.0359938341       25.1732131552
  C         7.0331200857        3.9108387500       25.9368936266
  C         7.7257864034        4.5200959872       23.9469905174
  C         6.0547095847        6.1198660708       25.0516371102
  C         7.1955181434        2.7965629041       25.0655874567
  C         6.5591761410        3.6456888123       27.1998092449
  C         7.6099832122        3.1815572561       23.8030719142
  C         8.1788035357        5.2150411471       22.8153355165
  H         6.1825217791        7.1027443147       24.4478072161
  H         5.7760651342        6.4055617723       26.1061303108
  C         4.8583777571        5.3547771580       24.4784708012
  S         6.7673297971        1.3654289252       25.9564790574
  C         6.3798030243        2.3040499995       27.3742656834
  H         6.1987618595        4.5018381022       27.8178607561
  C         7.9718608998        2.5965247198       22.6232600731
  H         8.2681420383        6.2181051311       22.9511097538
  C         8.6186561321        4.6152039399       21.6545522021
  H         4.9721297593        5.2650795367       23.3963844325
  H         4.7278891452        4.3862013742       24.9731398486
  C         3.5740074137        6.1868388304       24.7726664296
  C         6.0196606616        1.5707416749       28.6543065688
  C         8.5710428856        3.2622717141       21.4941347270
  H         7.8625727353        1.5072041466       22.5046002736
  C         9.1224864952        5.0469844982       20.4099819548
  H         2.7713673013        5.8747036000       24.1124553107
  H         3.7935797952        7.1909970467       24.4148484428
  C         2.8053164087        6.2017100097       26.1587835238
  C         6.0532144676        0.1720927826       28.9186922804
  C         5.8942413837        2.4668092798       29.8356650608
  C         9.0652499667        2.6182497012       20.2221883533
  C         9.4125158046        3.9921318729       19.5834726806
  S         9.3683419286        6.5469029349       19.6935193618
  H         2.0089989545        6.9174628439       26.0498959347
  H         3.4483386449        6.7989678161       26.8323734285
  C         2.4736879735        4.8786357492       26.7543096924
  N         6.3552142947       -0.7995005786       27.9294681386
  C         5.8019922404       -0.3614763353       30.1700238665
  C         5.6850025811        1.8779280618       31.1298434245
  H         5.9521961409        3.5851715856       29.8057701506
  C         7.9218367278        1.8968857984       19.4642995527
  C        10.2829557433        1.7635202278       20.4421367415
  C         9.8073057413        4.4028881683       18.3117226906
  C         9.8500048002        5.7105424102       18.1750553777
  H         1.9762138818        4.3112068151       25.9805008835
  H         3.3421917203        4.3329674468       27.0718231721
  C         1.4760475899        5.1763319138       27.9373893096
  S         6.3310234903       -2.2394705826       28.6837543906
  N         5.7781123374       -1.7858229615       30.1391290864
  C         5.6006730262        0.3792498869       31.3391584147
  H         5.5955786664        2.6205060427       31.9126176900
  H         7.7083406934        1.0161925436       20.0399680878
  H         8.4753548385        1.6111745999       18.5090707576
  C         6.6719179922        2.7838183655       19.1489715079
  H        10.4500084334        1.2993592194       19.5094558385
  H        10.0363333235        0.9889436088       21.1647651460
  C        11.5127495103        2.5584825365       20.8413502718
  H         9.9356386706        3.6447048371       17.5315038079
  C        10.2582960342        6.4812705004       16.9428355540
  H         0.9322981680        4.1673457926       28.2209758541
  H         0.6668819074        5.7652125401       27.5042419378
  C         2.1719364909        5.7770909247       29.1603645172
  C         5.4101720054       -0.3175591165       32.6259311448
  H         7.0087490619        3.7086713070       18.6710559998
  H         6.0820540289        2.9930046642       20.0044494925
  C         5.8899312946        2.0056274127       18.1334099885
  H        11.2780749206        3.2785710176       21.6246466259
  H        11.7868070653        3.1308339076       19.9679666565
  C        12.7506739767        1.7807334788       21.3396384481
  C        10.2802002070        7.9128257193       16.7982436010
  C        10.5323802043        5.7270173574       15.7447461266
  H         2.4217045103        6.8120974689       28.8305642643
  H         1.5050907551        5.8108887757       30.0524483831
  C         3.5173513583        5.1293518871       29.5095746538
  H         5.4666200814       -1.4010444523       32.5932122560
  C         5.0233030096        0.0497599621       33.8821741853
  H         5.8429339317        0.9153941277       18.4051559030
  H         6.3527115827        2.0993545864       17.1614808460
  C         4.4238826260        2.4401848630       18.0448886044
  H        12.6446854008        1.3699492539       22.3087507833
  H        12.7582752951        0.8919504946       20.6006056566
  C        14.1152360367        2.3495705800       21.1734649190
  N         9.9274307034        8.8609371046       17.7762065260
  C        10.5581317674        8.4584249539       15.5183188416
  C        10.9107442254        6.2705784896       14.5457375934
  H        10.5909248783        4.6117057252       15.7386720123
  H         3.8472091553        5.3109751489       30.5386355259
  H         3.5219840216        4.0404461497       29.3073487411
  H         4.2537432646        5.4748236984       28.8258939467
  S         4.5745313390        1.6636186833       34.3717844554
  C         4.7889280439       -0.9892894227       34.9101086406
  H         4.1895909557        3.3505632979       18.6322229590
  H         4.3605036568        2.8341476223       17.0365111552
  C         3.3886886402        1.3201777211       18.3577465602
  H        14.0020725125        3.0293045001       20.3700960799
  H        14.8279850113        1.6036526257       20.8537404529
  C        14.5170849445        3.2651995344       22.3666303237
  S         9.8745320614       10.3111607479       17.0181851679
  N        10.3334632485        9.8601452661       15.5499085570
  C        10.9318026444        7.7514539761       14.3611614304
  H        11.0692753359        5.5792782136       13.7534217073
  C         4.1366747245        0.9311623487       35.9368310160
  N         4.2184992899       -0.3997691303       36.0074571755
  O         5.1466571747       -2.2155684685       34.7655704735
  H         2.3579645252        1.6722509934       18.6851114301
  H         3.8307166940        0.7562517809       19.1406358635
  C         3.1126864299        0.3600880625       17.1997954477
  H        15.1504755821        4.0204475728       21.9170871648
  H        13.5917897608        3.6568185182       22.7238365622
  C        15.1852580001        2.4596064531       23.5079174262
  C        11.2799739693        8.4533983563       13.1663663099
  S         3.7418403591        1.8239936320       37.3934464087
  C         4.1026039691       -1.1349938438       37.3259873815
  H         2.4629072028        0.8943042650       16.4711339635
  H         4.0927488065       -0.0699176513       16.7866822948
  C         2.2456544464       -0.8291576535       17.6298360799
  H        15.0396026016        1.4194704746       23.4819381243
  H        14.6668851605        2.6834282511       24.3890260435
  C        16.6587756565        2.7509505275       23.7082836710
  H        11.2214470421        9.5863594551       13.2278277950
  C        11.6670832212        8.0410903663       11.9012064328
  H         3.3255538184       -0.7442962883       37.9832827750
  H         3.6923637778       -2.1379214065       37.0621340268
  C         5.4493658048       -1.2408331834       38.0063945439
  H         1.2636122043       -0.4066280745       17.5463566409
  H         2.5276318798       -0.9673910461       18.6706357760
  C         2.5073637535       -2.0792311916       16.8103117303
  H        16.7383747606        3.8469426436       23.8763604786
  H        17.0246478087        2.1708712122       24.5529012201
  C        17.6193317279        2.3645665974       22.6002477240
  S        12.2498529565        6.5034017040       11.5034021485
  C        11.8009910466        9.0281674836       10.8388575275
  H         5.3505407840       -2.0124554565       38.7457157305
  H         6.3029570499       -1.6173777689       37.4280922895
  H         5.9118925586       -0.4125477940       38.5192426487
  H         2.2623238111       -2.9921709672       17.3937056087
  H         3.5410680357       -2.1088951082       16.5073387390
  H         1.9495689440       -2.0424146669       15.8962406816
  H        18.6050590299        2.7593455818       22.6226241174
  H        17.2279090604        2.8103950976       21.6276495582
  H        17.5599456350        1.2864184941       22.4486072661
  C        12.6045297374        7.0934874672        9.9144186627
  N        12.4989570680        8.4226855201        9.8584718075
  O        11.2916909243       10.2011817598       10.8844749802
  S        13.4807462838        6.1851123081        8.6460093350
  C        12.7971513441        9.1364029765        8.5607874211
  H        12.7951325277       10.1762685451        8.6076751439
  H        13.8909024094        8.8795753996        8.2052031756
  C        11.5993868274        8.8503226576        7.6457038492
  H        11.9650061578        8.4183829934        6.7122485847
  H        10.8273154382        8.1815457302        8.0429055938
  H        11.2144475589        9.8002501637        7.3208265936
  H        21.6217228666       11.1937922496        3.4367621474
  C        22.2089079787       10.3455714385        3.6191030717
  H        21.4856621113        9.6112745700        3.8666059236
  C        23.1352476360       10.4353619729        4.8142730483
  C        23.0446695952       10.2474355119        2.3208542769
  C        22.3784527809       10.9142700303        6.0702435864
  H        23.6781948122        9.5221261834        5.0763491278
  H        23.8541487640       11.1778971654        4.6050652877
  H        22.3638549397       10.3362224025        1.5428825813
  H        23.6821195788        9.3257501882        2.2151348133
  H        23.8258005317       11.0429866050        2.2390416348
  C        21.2559602242        9.9437340882        6.5209641201
  H        22.9375014025       11.0932802790        7.0124456680
  H        21.8969382495       11.9024607590        5.7837774826
  C        20.5823836476       10.2101347365        7.8615569560
  H        21.5808240711        8.8788776394        6.6040430679
  H        20.5292333083       10.0316504056        5.7057279314
  C        19.3403108875       11.0182210585        7.5681537771
  H        21.3303086809       10.6005016976        8.5835192373
  H        20.1137182390        9.3095648082        8.3101056593
  C        18.1421842353       10.1994569993        7.0309646524
  H        19.0064948260       11.3982870028        8.5562373940
  H        19.6681060729       11.8080529620        6.9861022386
  C        16.8293202740       10.9532778517        6.9907101860
  H        18.0078072368        9.3063319634        7.6018376852
  H        18.3442722724        9.8232983748        6.0708886175
  C        17.0704797842       12.2682896712        6.2862716594
  C        16.3446340833       11.6877944137        8.2033809203
  C        15.8274001294       10.1662170043        6.1555145396
  C        16.7499459292       13.3963119717        7.0298855064
  C        17.4578890096       12.5812613294        4.9706931478
  C        16.3178800707       13.0567710405        8.2938043825
  C        15.8811566566       11.0124247154        9.3050572570
  H        16.2126896405        9.8464121025        5.1985774231
  H        15.6652126116        9.3093503369        6.7492000740
  C        14.4399879856       10.8245740641        5.9346788641
  S        17.0868287063       14.8741110701        6.1893782953
  C        17.5827662076       13.9511496213        4.7855403876
  H        17.7092152154       11.7939750009        4.2852550818
  C        15.9669456812       13.6963690580        9.4610698003
  H        15.8696790179        9.9288410281        9.2860951196
  C        15.5044549535       11.6748297722       10.4738941571
  H        14.5889064684       11.8853480211        5.6352870902
  H        13.9278673932       10.9428042875        6.8866959829
  C        13.5798461323       10.3053571638        4.8206493305
  C        18.0689354124       14.6535809647        3.6100705766
  C        15.5564439702       13.0070329833       10.6059448634
  H        16.0650850064       14.7821193659        9.5274278004
  C        15.0501018993       11.2829461386       11.7092850638
  H        12.5477544858       10.6475710114        4.9724425255
  H        13.5514096284        9.2207684737        4.8515909038
  C        13.9784754431       10.6875897789        3.4258775990
  C        18.1861342877       16.0574515395        3.3273598093
  C        18.6508494145       13.9350290300        2.5197869764
  C        15.1274546149       13.7165182632       11.8808190332
  C        14.8246787749       12.3675149694       12.6080885351
  S        14.7503559648        9.7558562856       12.4848723337
  H        14.9731762232       10.1797203152        3.1885661801
  H        14.1315552895       11.7797876319        3.2748439892
  C        13.0576907869       10.2202612079        2.3437689886
  N        17.7999838377       17.0223880141        4.3173000441
  C        18.4760522571       16.6296997015        2.0843378346
  C        18.8013701805       14.4337257867        1.2153252795
  H        18.6634202100       12.8814510225        2.6582120339
  C        13.8156735905       14.5278892239       11.5690830164
  C        16.3082569809       14.5316881384       12.4842931206
  C        14.4372781658       11.9498926743       13.9212421794
  C        14.3750823688       10.5376634602       14.0006199589
  H        12.7685643023        9.1618220214        2.3967403060
  H        12.1071579575       10.6223641215        2.4647151592
  C        13.5829374174       10.5616012451        0.9266656943
  S        17.8810950733       18.4971472719        3.6802361749
  N        18.2349480334       18.0058529999        2.1414644561
  C        18.7231287988       15.8648490718        0.9260742187
  H        19.2994124644       13.8142407750        0.4976175332
  H        14.0850357130       15.3740802995       10.9209917773
  H        13.4593271685       15.0035918592       12.4452566649
  C        12.7265412986       13.6152200403       10.9549297999
  H        16.6089333232       15.2139279632       11.7016456829
  H        16.0282446053       14.9253322812       13.4557891243
  C        17.4959997339       13.6510027264       12.8237067464
  H        14.3931657106       12.6680735215       14.7390223502
  C        14.0854236227        9.7233434015       15.2128563651
  H        14.4827313796        9.9946725250        0.5994990606
  H        13.9378723339       11.5978859357        1.0004708673
  C        12.4620952538       10.4811680746       -0.1313232151
  C        18.9843104035       16.4053487194       -0.3374140422
  H        13.1273070608       13.2559703072        9.9558353924
  H        12.4536899637       12.8002199164       11.6535630792
  C        11.5710439128       14.4439972477       10.5943863482
  H        17.7322092497       13.0619013488       11.9927714485
  H        17.2938738355       13.1085717187       13.7203025055
  C        18.7525294686       14.5409702783       13.0577269968
  C        14.0973924061        8.3349665793       15.3025486418
  C        13.6447767549       10.3876430631       16.4497695761
  H        11.9662695632        9.5178606533        0.0203780407
  H        11.5979239486       11.1596525614        0.0394828490
  C        13.0321590930       10.6844170244       -1.5580483027
  H        19.0302472619       17.5054643991       -0.2416612722
  C        19.3231330664       15.8594071913       -1.5690322967
  H        11.7882566148       15.2296288086        9.9730834162
  H        11.2533422411       14.8115657851       11.5456639095
  C        10.4721596513       13.5755418961       10.1383293748
  H        19.2408316295       14.8085793800       12.1030088859
  H        18.4214493732       15.4592579668       13.4524594977
  C        19.7257127251       13.6568276342       13.8656047176
  N        14.4707086551        7.4118144830       14.2509731278
  C        13.6784843457        7.5784741692       16.3994029789
  C        13.2878778562        9.6222647523       17.5186835807
  H        13.8349217853       11.4954900353       16.5577913179
  H        13.8886297452       11.3880396851       -1.5430334761
  H        12.2684317380       10.9192504997       -2.2201720572
  H        13.3284107125        9.6424449808       -1.8355040617
  S        19.9272733708       14.2811474231       -1.9008762267
  C        19.4369536760       16.8465467080       -2.7028803374
  H        10.9212669920       12.9828437328        9.3845723093
  H        10.3811998983       12.8498149267       10.9953427421
  C         9.2007371004       14.2718302862        9.5994385711
  H        19.7671511844       12.6662900054       13.3764829128
  H        19.3662709896       13.5462914501       14.9052762493
  C        21.1512730885       14.2793070130       13.8819689536
  S        14.4821497740        5.8898473832       14.7487655873
  N        13.8386116079        6.1500710131       16.2303369698
  C        13.3058927075        8.1835709631       17.5939614625
  H        13.1933192020       10.1598606076       18.4249002114
  C        20.1627050035       14.8696461149       -3.5485025654
  N        19.9860000690       16.1933362323       -3.7197630649
  O        19.1146109277       18.0356511508       -2.6154189459
  H         8.8056267812       14.8773358234       10.3956285785
  H         9.3607160553       15.0031330273        8.7847642392
  C         8.0689318946       13.3528281901        9.0813951800
  H        21.8271258300       13.4489326915       14.0365080277
  H        21.3235213602       14.7281345244       12.9047820583
  C        21.2848543404       15.2719947261       15.0139198443
  C        13.0200585419        7.5015971013       18.7801125066
  S        20.8135078512       13.8378710692       -4.7820916095
  C        20.1404134228       16.9464337007       -4.9986317940
  H         8.4649974442       12.9532529861        8.1346253651
  H         7.9134123283       12.4703174180        9.7426591351
  C         6.7395673902       14.0581518611        8.9831145054
  H        21.6887976747       14.8212576866       15.8871772117
  H        20.2246998210       15.6030684259       15.1628784706
  C        22.1926401970       16.3695155250       14.7642418459
  H        13.2277858371        6.5291660524       18.6616444471
  C        12.5282905141        7.8468066578       19.9701483449
  H        20.7811702796       16.3634248544       -5.6318129229
  H        20.6849103391       17.8339797052       -4.7736631069
  C        18.7089352832       17.2707327805       -5.6516782633
  H         6.0329081092       13.4853215958        8.3544082974
  H         6.7889201495       15.0888644698        8.6080065246
  C         6.1311427644       13.9720470795       10.3812544692
  H        22.7818196234       16.3736530575       15.6622557782
  H        22.8139517769       16.3045536637       13.8536194018
  C        21.3954501566       17.7149754233       14.5060175518
  S        11.9321566131        9.4316020177       20.5767763743
  C        12.4831078041        6.7819442150       20.9720589443
  H        18.7526862841       17.6966364326       -6.6630491114
  H        18.2452362100       18.0925589645       -5.1434987874
  H        18.0591996411       16.3952720088       -5.6589842614
  H         5.1327624829       14.2977809401       10.2439420190
  H         6.0801354227       13.0305339441       10.8353142493
  H         6.6064844100       14.6184921469       11.0736541669
  H        21.9849111351       18.5332630080       14.0556388958
  H        20.5046780606       17.5800888335       13.8730380593
  H        20.9906470434       18.0762419144       15.4508556812
  C        11.5038602386        8.6044711126       22.0600397704
  N        11.8634322649        7.2847670485       22.0869820827
  O        12.9235784667        5.6378195004       20.7931587684
  S        11.0983742641        9.3837624934       23.5430149264
  C        11.7909917477        6.4620276086       23.2844266114
  H        11.6688440808        5.4084721284       23.0319176855
  H        10.9216735845        6.7237302296       23.9433251987
  C        13.1033984067        6.6043842496       24.0618909477
  H        13.0446449548        5.8681303635       24.8166708704
  H        13.3467225772        7.6217614251       24.4332307647
  H        13.9795427615        6.2971496601       23.3953324423
