352
 i =     2300, time =     2300.000, E =        44.4319880753
  H        12.6948469602        6.1980119145       32.7162040751
  C        11.8423426007        5.7214905767       32.2677052952
  H        12.2602617506        4.7567324368       32.0373998931
  C        11.1623543426        6.3623663508       31.0295913525
  C        10.8605699506        5.5210803412       33.4779789635
  C        11.4754115497        5.7076920128       29.6821527595
  H        10.0496749533        6.3460128088       31.2654239120
  H        11.5859070489        7.3860375017       30.9431911867
  H        10.3964899637        4.5206398918       33.4965742407
  H        11.3239223853        5.6848510936       34.4723711109
  H         9.9719727548        6.1628682947       33.3170488129
  C        10.3691798866        5.9141605850       28.6408053373
  H        11.4623118855        4.6533643686       29.9349957745
  H        12.5431418936        5.9844806320       29.4150068438
  C        10.7919065706        5.5708660218       27.1756205538
  H         9.6329994944        5.2154912223       28.8215718292
  H         9.9861940076        6.9965310189       28.6763337829
  C         9.6404483052        4.8784169810       26.3436278459
  H        11.6387058440        4.8971932606       27.5024754079
  H        11.0924053797        6.4938702971       26.6478629088
  C         8.5235599831        5.8672237350       25.9268889665
  H         9.9287976915        4.4414004355       25.3305074318
  H         9.1379778748        4.0855445387       26.8534242497
  C         7.2807776879        5.1353106845       25.2854262471
  H         8.2071932892        6.4495268265       26.7167101702
  H         8.8952041549        6.5827123162       25.2069637538
  C         6.8819030203        3.7800416862       25.8972640749
  C         7.7310239786        4.5263808955       24.0305864985
  C         6.1035383043        6.0344751576       25.0263734185
  C         7.1374864748        2.7180286994       25.0964392884
  C         6.5723230864        3.4666101933       27.2114415803
  C         7.6587233409        3.1313978313       23.8606284674
  C         8.1736836708        5.1534288684       22.8690481540
  H         6.3982426549        6.7921358620       24.3176023635
  H         6.0185280465        6.5420853795       25.8942340020
  C         4.8429019957        5.2259498663       24.5135600092
  S         6.8066330785        1.2612719724       25.8416198768
  C         6.3597221571        2.1573692560       27.3225457536
  H         6.3712410764        4.2651910516       27.8706668621
  C         8.0578880081        2.4214120181       22.7491233674
  H         8.3338032955        6.2737046276       22.8315880258
  C         8.6297025725        4.4586101527       21.7222149666
  H         5.0660836849        5.0367306765       23.4902188646
  H         4.7772722800        4.4741068345       25.2339439083
  C         3.5431071524        6.0410376772       24.5601402790
  C         6.0219445058        1.3801224524       28.6220951696
  C         8.5834964733        3.0614406825       21.6333959637
  H         7.9198100609        1.2815920502       22.8001457035
  C         9.0266204504        4.8624529762       20.4976770286
  H         2.6631942667        5.4584705428       24.0864963661
  H         3.6966609179        6.7128416066       23.6604556215
  C         3.1086569217        6.4231018722       25.9844319425
  C         6.1278622365       -0.0063825051       28.8060421186
  C         5.6825164042        2.2266850091       29.8009308550
  C         8.9728396369        2.3264270827       20.3758185070
  C         9.2766384001        3.7237878988       19.6855303178
  S         9.3899287571        6.2743691449       19.7066656278
  H         2.1447649591        6.8598578420       25.8086625570
  H         3.7409480758        7.1018236385       26.5575804010
  C         2.8564141602        5.1377226844       26.7323382117
  N         6.4194565629       -0.9080809137       27.7635873176
  C         5.8344879595       -0.5755077712       29.9928876007
  C         5.2959430547        1.5767932108       31.0047810891
  H         5.6463647642        3.2694320150       29.6727345342
  C         7.6601920321        1.6339376738       19.6954764606
  C        10.2232988689        1.4054789281       20.5146385088
  C         9.6453927016        4.0583796653       18.4115420162
  C         9.7012726774        5.4109077769       18.2438182364
  H         2.3705178009        4.3966169324       26.0887275559
  H         3.7536103686        4.6232767274       27.1630660402
  C         1.8893137736        5.3456681773       27.9517017217
  S         6.5841200033       -2.3531133624       28.4955527457
  N         6.0188585681       -2.0181624387       29.9198628665
  C         5.4789126837        0.1339433072       31.1804816670
  H         4.8272386496        2.1541570309       31.7718852086
  H         7.1245729234        1.2410171555       20.4582713321
  H         7.8939502006        0.7694656943       19.0804121191
  C         6.5430678571        2.5776398716       19.1844957001
  H        10.4529916532        0.9908802026       19.5657172044
  H         9.7717672797        0.6515413630       21.1094357646
  C        11.4964235255        2.0255609133       21.2108535070
  H         9.8751610587        3.3040193485       17.7032019623
  C         9.9534481215        6.2012636730       17.0019700213
  H         0.9900323365        4.7172945982       27.8535321655
  H         1.4847743692        6.3765912452       27.8475144857
  C         2.6959152373        5.0784477132       29.2091607260
  C         5.1389853650       -0.6083175461       32.3633799317
  H         6.9894673590        3.2491624751       18.4474386451
  H         6.4100394328        3.2984858517       20.0635064224
  C         5.3461721506        1.9040212648       18.5513541653
  H        11.1628158103        2.2840296099       22.2525402179
  H        11.8878351911        2.9559689198       20.6671927625
  C        12.7248842626        1.0513737787       21.4192891480
  C        10.1058245615        7.5729696330       16.8625588035
  C        10.0483800179        5.5051079022       15.6730459248
  H         3.0498064946        4.1135238217       29.1508025000
  H         3.5234666060        5.8094285881       29.4028276347
  C         1.6652289335        5.2988204866       30.3460995324
  H         5.3591407647       -1.5844331215       32.2881608646
  C         4.6491742343       -0.1985134779       33.6295438164
  H         4.9158304106        1.2353828390       19.3583946267
  H         5.6772513527        1.3966633440       17.6101037671
  C         4.0864175402        2.7759679144       18.2328927994
  H        12.5538003778        0.1741338159       22.0106568243
  H        13.0018293120        0.6892745312       20.4378861478
  C        13.8392881239        1.9215526836       21.9998332056
  N         9.8759337511        8.4738585380       17.8784513743
  C        10.4632371058        8.2147581751       15.6794518357
  C        10.2816129075        6.1298004641       14.4507575233
  H         9.9585942515        4.4392948519       15.6449678407
  H         2.2604588955        5.2210449262       31.2769849725
  H         1.2970846518        6.2716555212       30.4606885482
  H         0.9636205583        4.4049605444       30.5295765777
  S         4.2776214855        1.4549514798       34.2397490383
  C         4.6691270368       -1.2744845478       34.6400980026
  H         4.1776403720        3.6163503572       18.9119235754
  H         4.2124834973        3.2414671713       17.3042435290
  C         2.8277607085        1.8990092568       18.3368267070
  H        13.6558563106        2.9023864124       22.3648832159
  H        14.5711225519        2.0373627319       21.1561303385
  C        14.5730793154        1.2184636612       23.2089364458
  S        10.3093478532        9.9527472018       17.4226234352
  N        10.5421226278        9.6958465766       15.8418673694
  C        10.6062953316        7.5295233352       14.4312581929
  H        10.6392976142        5.5066259663       13.6158969171
  C         3.8799922129        0.5879033257       35.7627430640
  N         4.1422769068       -0.7194903113       35.7484882108
  O         4.9796703809       -2.4537474635       34.4244832435
  H         1.8445444903        2.4303528834       18.2354644560
  H         2.6893311556        1.6401577176       19.4095612777
  C         2.8580822636        0.6680680736       17.4053460272
  H        13.8399198400        1.4407800704       23.9944870822
  H        14.8039137232        0.1911165879       22.9506261791
  C        15.8918048582        1.8657258798       23.6958651570
  C        10.8951311738        8.3879755095       13.2946843443
  S         3.6152488076        1.4032133087       37.2574848995
  C         4.1570648460       -1.4988260875       36.9825903572
  H         2.4138830978        0.9551070921       16.4100269333
  H         3.8624155851        0.2275592822       17.2021626097
  C         1.8595018444       -0.4966938479       17.8629284067
  H        16.1336942446        1.2996268199       24.6083414793
  H        15.4038921637        2.8292557139       24.0119835967
  C        16.9698877174        1.7936118577       22.5615187593
  H        11.0806699951        9.4233501573       13.6820955459
  C        11.3953527853        8.0581541692       12.0489356873
  H         3.3376526457       -1.1801347429       37.5555784252
  H         3.7161699208       -2.4389860215       36.9297768294
  C         5.5279409896       -1.4134180101       37.5774122236
  H         0.9546509829       -0.1938252514       17.5983270611
  H         1.9551927400       -0.8099922825       18.8560903153
  C         2.0102689080       -1.8467642571       17.1065773418
  H        17.7155214548        1.7381328988       23.1850051782
  H        16.9011298014        1.0225415196       21.7848001994
  C        17.2959678856        3.2131412374       21.9353076607
  S        11.9029808325        6.5152023769       11.5683227378
  C        11.5653231722        9.1511311169       11.1412540446
  H         5.8944926245       -0.4363379368       37.6923647686
  H         5.3644525507       -1.7008115876       38.6636730156
  H         6.3103796571       -2.1335196070       37.1553464207
  H         2.1842542108       -1.6955391643       16.0470057766
  H         1.2277728731       -2.5399370971       17.1537215381
  H         2.7338571308       -2.4395101300       17.4357585844
  H        17.2343138257        3.3388435902       20.8910704322
  H        18.3117980882        3.3821768315       22.1605220216
  H        16.7675519702        4.0213837039       22.5014082410
  C        12.2854788389        7.3271598349       10.0120477253
  N        12.0907269657        8.6999914638        9.9827158387
  O        11.3386796200       10.3227657007       11.4850461834
  S        13.3408955279        6.7062010439        8.7612865817
  C        12.4441512604        9.5189474272        8.9005281019
  H        12.6235010070       10.4549345566        9.4684708460
  H        13.4255553767        9.1754711671        8.4340658271
  C        11.2565852009        9.5991076578        7.9075332516
  H        11.2087135290        8.7421319666        7.1345659548
  H        10.3099611579        9.9099430249        8.4193110882
  H        11.2840277263       10.4320334594        7.1459412859
  H        21.1856125136       10.7323424824        3.3742328290
  C        22.0076532266       10.1234897976        3.4118874282
  H        21.8164457659        9.0439692989        3.4963636194
  C        22.7586874414       10.3746256907        4.6784578215
  C        22.8612655689       10.4023467369        2.1636502260
  C        21.9378013856       10.7276861966        5.9096670003
  H        23.6188164618        9.6716305104        4.8347944027
  H        23.3402509351       11.3074888950        4.4040802257
  H        23.5271301964       11.1619793801        2.2763097917
  H        22.2658137821       10.6867149366        1.2902320433
  H        23.4785177538        9.5270992593        1.8806872399
  C        20.9227952211        9.7729450198        6.2998140303
  H        22.6564927379       10.8076175769        6.5939726044
  H        21.5660161084       11.7119744194        5.7414357734
  C        20.4169851064        9.8923577835        7.7167373449
  H        21.2321901699        8.7680854694        6.2394732425
  H        20.1653193376        9.8138000700        5.4767499490
  C        19.1634151956       10.6792594043        7.8127764816
  H        21.2424510745       10.4301045987        8.2042409651
  H        20.4171932383        8.9698105774        8.3332854683
  C        17.9506195078        9.9120400885        7.1740082420
  H        19.0279901313       10.8835556336        8.8414002461
  H        19.5505795368       11.5114164586        7.3263186649
  C        16.6292978327       10.7796035480        7.0172154594
  H        17.6632840274        9.2891647546        7.9118213277
  H        18.1345547073        9.6143761432        6.1383091617
  C        16.9318567807       12.2647591140        6.4270650887
  C        16.1790129686       11.5312202584        8.2951313229
  C        15.4878835194       10.0792432328        6.1996227403
  C        16.7033107479       13.3008488477        7.2851292932
  C        17.4699136223       12.5303997548        5.2492695566
  C        16.1731980793       12.8540769296        8.4667099964
  C        15.6900368362       10.8603648111        9.4199560726
  H        15.8532676792        9.8017378537        5.2607270551
  H        15.1955123877        9.0324431930        6.5516157786
  C        14.2434472021       11.0178661362        5.9548439142
  S        17.2828415874       14.7902680798        6.6126675564
  C        17.6363197402       13.8808132853        5.1237992257
  H        17.7922544233       11.7353710068        4.5811035874
  C        15.7212577643       13.4383938396        9.5911103551
  H        15.6010894851        9.7505516579        9.3253051752
  C        15.2666498402       11.4613827495       10.5809084690
  H        14.7069219825       11.9767921766        5.6845516601
  H        13.6515623152       11.1845347299        6.8906339848
  C        13.3499617648       10.5800634544        4.8144449704
  C        18.1149183177       14.5448410422        3.8129091462
  C        15.2121407644       12.8234186295       10.7120846676
  H        15.8595839737       14.5546992767        9.5001413559
  C        14.8261756828       11.0766398797       11.8459600667
  H        12.3862582515       11.0586053548        4.9868267051
  H        13.2585518950        9.5177477431        4.9183363667
  C        13.7190828101       10.9726131232        3.3869394839
  C        18.0006520390       15.9767209308        3.5580123534
  C        18.4895973270       13.7596511167        2.6171383324
  C        14.8644985373       13.5324102608       11.9966723060
  C        14.6672243337       12.1724007603       12.6675413573
  S        14.5787093396        9.5694704366       12.5542476777
  H        14.6821508017       10.7239107443        3.2033810752
  H        13.6413051395       11.9545786143        3.2706347481
  C        12.8757899684       10.2132706415        2.2527170834
  N        17.6895965846       17.0200268191        4.4558583209
  C        18.3259651681       16.5102981673        2.2895335351
  C        18.8341151143       14.3176061476        1.3924702214
  H        18.4449776989       12.6354759354        2.7138815696
  C        13.6200695470       14.4054444279       11.7664200054
  C        15.9283979999       14.3878182560       12.7564551818
  C        14.2893108370       11.6567194202       13.9605639392
  C        14.2261882751       10.2733367481       14.0564727040
  H        13.0411958790        9.1863626651        2.3443969128
  H        11.8142334700       10.3865374262        2.2642385163
  C        13.3899733150       10.5456174377        0.8759368590
  S        17.7861153686       18.4057842586        3.6304972624
  N        18.2575048873       17.9442585590        2.1922190476
  C        18.8502092421       15.8072962264        1.1977147716
  H        19.1178484852       13.6305641132        0.6059491524
  H        13.6783519674       15.0177264205       10.9426087185
  H        13.5377832469       15.1714250708       12.5248532501
  C        12.3490642361       13.6237860058       11.4590155581
  H        16.1351073164       15.3226069621       12.1773763298
  H        15.5499393412       14.6582440513       13.6870103990
  C        17.2576798533       13.5732655218       12.9515857194
  H        14.0291418860       12.3247634285       14.8065340651
  C        13.9759965837        9.4155655641       15.2442468509
  H        14.2627132965        9.9552835823        0.6906280583
  H        13.8059570622       11.5583932529        0.6591210842
  C        12.3599605852       10.1153915017       -0.1172215395
  C        19.0484240404       16.4568748954       -0.0994643553
  H        12.6196206911       13.0060279670       10.6141764318
  H        12.1571024155       12.8151058520       12.1820595743
  C        11.1512496126       14.4945553168       11.1397389612
  H        17.4337911060       13.0628522887       12.0520434881
  H        17.2338169796       12.7172191422       13.6629218937
  C        18.4084003526       14.4051628858       13.3536897893
  C        13.8735821192        8.0636382275       15.2955175865
  C        13.7792754846        9.9990695673       16.6284952718
  H        11.9774478760        9.1826890647        0.1753431756
  H        11.3527960060       10.6379110385        0.0491188447
  C        12.6338781054       10.3457592184       -1.6147931463
  H        19.0254483094       17.5177051000       -0.0788436446
  C        19.3261821033       16.0330972879       -1.4311409861
  H        11.5050891948       14.9913340743       10.3277819865
  H        11.0185072254       15.1968581203       11.9920139518
  C         9.8120273123       13.8224786086       10.7463966534
  H        18.8314596389       14.9925340144       12.5532550509
  H        18.1531076267       15.0359200326       14.1884556500
  C        19.6891981837       13.6477051396       13.8423124009
  N        13.9212806777        7.1555480051       14.2345205185
  C        13.4346406197        7.3652082139       16.4934536362
  C        13.4113289895        9.3372566938       17.7743942832
  H        13.8286232824       11.0904500056       16.7583911121
  H        12.2226199912        9.5806669946       -2.2727322619
  H        13.6630909317       10.3396040784       -1.7941690432
  H        12.1103039805       11.1843464163       -1.9707462208
  S        19.6402973691       14.4374823007       -1.9325098647
  C        19.3835049055       17.0994558263       -2.4221747961
  H        10.0552125527       12.8264881166       10.5291389321
  H         9.1000541352       13.9328715592       11.4897303723
  C         9.1415551741       14.3717478549        9.4777247275
  H        19.6770187863       12.7851624492       13.2370286769
  H        19.4717464153       13.2328552545       14.9133913542
  C        20.9580321779       14.3722551952       13.6893180677
  S        13.7673589299        5.6129948870       14.8257806555
  N        13.5322985108        5.9492124612       16.3981939904
  C        13.1259082807        7.9335854668       17.7176767633
  H        13.0696383171        9.9627004807       18.5227901714
  C        19.7818017082       15.1625170132       -3.5529966415
  N        19.6964926890       16.5123743342       -3.5801885035
  O        19.2891893273       18.3305174873       -2.2877305311
  H         8.9779983993       15.3354259411        9.5898469192
  H         9.9533056040       14.5050498353        8.6347243661
  C         8.0356376310       13.4428190903        8.9387247049
  H        21.6358477348       13.6920901034       14.1881218953
  H        21.3374690288       14.5127775906       12.7201738572
  C        21.1269717382       15.6266327798       14.6347811320
  C        12.7605038253        7.1132581486       18.8701538823
  S        20.2121340400       14.2941517356       -4.9238072043
  C        19.7790778472       17.1883936700       -4.8881146748
  H         8.3378849331       13.1561401704        7.9191987126
  H         8.0650577086       12.5786973551        9.5681313221
  C         6.7643873700       14.1184598918        8.8814638298
  H        21.8333262013       15.2929027033       15.2969129296
  H        20.4155776012       15.6799928702       15.3905766295
  C        21.4328461645       17.0283699090       14.0821064164
  H        12.9110570463        6.0597448652       18.7693782322
  C        12.3704157693        7.4776206126       20.1325800218
  H        20.6148048530       17.1133631323       -5.6566947772
  H        19.7246911161       18.2793669244       -4.6431058500
  C        18.4616523800       17.0260673234       -5.7435921714
  H         6.3379220073       13.6882600639        8.0076946237
  H         6.8649068677       15.2056994551        8.6587652355
  C         5.9165301107       13.9317390752       10.1253266057
  H        22.4999370864       16.8681416105       13.8566750456
  H        20.8638828682       17.1314502593       13.0584684366
  C        21.2875855272       18.2248815418       15.0100143097
  S        11.7809451031        9.0277394191       20.7265897980
  C        12.5548248608        6.4769225844       21.1495522912
  H        18.3361652623       17.9250321280       -6.4878811771
  H        17.5509463452       16.9928566774       -5.0848137258
  H        18.4568146377       16.2599505585       -6.4828022829
  H         6.2391796154       14.5659337224       11.0085021750
  H         4.8934088444       14.2482349487        9.6842687481
  H         5.9311708218       12.9366177011       10.4066200101
  H        21.9534196919       19.0295927697       14.3763304341
  H        20.2401814385       18.5300315959       15.3628639975
  H        21.6245242237       17.9905887277       16.0756409111
  C        11.6970835668        8.2328344237       22.3468923780
  N        11.9339291501        6.9213130255       22.3396235753
  O        12.9572523005        5.2947455641       21.0064722023
  S        11.1170023747        9.0877334097       23.7218473952
  C        11.9874500378        6.1004434584       23.5467368627
  H        11.7411503517        5.0351364363       23.3157234439
  H        11.2736717106        6.4791816690       24.3500392411
  C        13.4147932982        6.0046156329       24.0593966686
  H        13.5217317186        4.9346335744       24.3386305258
  H        13.5933769295        6.4391933554       25.0966095860
  H        14.0652021292        6.2673416815       23.2804541705
