352
 i =    79900, time =    79900.000, E =        24.9511731889
  H        10.4938668066        7.3530346222       31.6987745456
  C        11.5178279679        7.0259628417       31.7119741135
  H        12.0883766280        7.9032045108       31.9905840943
  C        11.9707111571        6.3883595837       30.4018540820
  C        11.6546855593        6.0679512143       32.8332291282
  C        10.8060289977        5.5385254236       29.8937130555
  H        12.3037084124        7.1518563525       29.6499510361
  H        12.8314265665        5.7162830608       30.6956440787
  H        11.9284870331        6.5814060531       33.7799381015
  H        10.7359437459        5.5655592938       33.0970145063
  H        12.3896239142        5.2869389733       32.7122985218
  C         9.8538227078        6.3737220325       28.9374326821
  H        10.1183819443        5.2112032171       30.7021371319
  H        11.2196098117        4.6807200062       29.4175736248
  C        10.3480802651        6.2744417463       27.5037903433
  H         8.8751020731        5.9406244967       28.8599428526
  H         9.7577759469        7.3621263775       29.3657465225
  C         9.5240146414        5.4614827604       26.5021851166
  H        11.3225297108        5.8379664033       27.4409002812
  H        10.4744520585        7.2979506825       27.1815327053
  C         8.3278464860        6.2589409913       25.9827274662
  H        10.1743204727        5.3448296646       25.6718196035
  H         9.4014989664        4.4543830496       26.9486570252
  C         7.3383849538        5.4169279969       25.1220312459
  H         7.8069069332        6.7722273099       26.7847567632
  H         8.6776206671        7.0299893559       25.4485996722
  C         6.9931071105        4.0763503020       25.8098051595
  C         7.9034876754        4.6832146265       23.9592801653
  C         6.0086658622        6.1852669293       24.6408538103
  C         7.3382537729        2.9473280205       25.0528634971
  C         6.4343814243        3.6726193482       27.0295308929
  C         7.8456723900        3.2984604370       23.8521880425
  C         8.4148732661        5.3861416855       22.8748183250
  H         5.4515808982        5.5663857756       23.9656103403
  H         6.2747350240        7.0702043562       24.1796693318
  C         5.0186072641        6.6164940169       25.7314874491
  S         6.8598993319        1.4713907103       25.8287510904
  C         6.2996471465        2.3082072741       27.1739925497
  H         6.1860241363        4.3835932551       27.8457123769
  C         8.3905969206        2.6810358675       22.7814580606
  H         8.5197746374        6.4956032603       22.7604443912
  C         8.7356833459        4.6257501572       21.7318992613
  H         4.9896809224        5.8179717291       26.5237282995
  H         5.4673372353        7.5235453742       26.1894068464
  C         3.6611245529        6.7831289435       25.2797163692
  C         5.9506547840        1.6724218569       28.4928614437
  C         8.7654364131        3.2978893937       21.6507702788
  H         8.2879174951        1.5457681131       22.6988708509
  C         9.1338883774        5.0164344356       20.4918612896
  H         3.4399290418        6.0228952683       24.4917740971
  H         3.4935611837        7.7016331125       24.6497954552
  C         2.7679197648        6.8155369860       26.5353742074
  C         6.1026912958        0.2247245978       28.7928805265
  C         5.5276756384        2.4900123345       29.7046492628
  C         8.9149865032        2.6038331289       20.3527568236
  C         9.3749921886        3.9276222969       19.6458693706
  S         9.4802687288        6.5069179214       19.6941142158
  H         1.8602174725        7.2673209122       26.1490993754
  H         3.1185243154        7.4487404616       27.2733111422
  C         2.3326057533        5.4756816751       27.1531897123
  N         6.3999354531       -0.8081674648       27.8191741629
  C         5.9270526364       -0.3006388209       30.0617766726
  C         5.3196213811        1.9014266962       30.9032101061
  H         5.3862637379        3.5645554443       29.7071291081
  C         7.6484445969        1.9428502613       19.7054493100
  C        10.2425198108        1.8098878724       20.4477327620
  C         9.7013539515        4.3252246761       18.3044800738
  C         9.7362956647        5.6899099128       18.1965000410
  H         2.1324533380        4.7036760816       26.3925209829
  H         3.0999817844        4.9996575783       27.7732754330
  C         1.0020570236        5.6016882224       27.7314614245
  S         6.5381660467       -2.2437774444       28.5988380034
  N         6.0317890820       -1.7392626417       30.0527437589
  C         5.4257418415        0.4434307851       31.1726004133
  H         5.1629040660        2.5534409361       31.7506707315
  H         7.2681315735        1.1211732013       20.3743573995
  H         8.0767034331        1.3859202341       18.9306256161
  C         6.5843234097        2.9705350861       19.2113665221
  H        10.6771276937        1.4817585803       19.5126887408
  H        10.1969542814        0.8338159625       20.9080982946
  C        11.4937676194        2.5919638814       20.9179628122
  H         9.9047187375        3.5411132720       17.5803067216
  C        10.0829125466        6.3874287027       16.9752383839
  H         0.4401193101        5.1362366238       26.9050338446
  H         0.7399967129        6.6470433019       27.8543740042
  C         0.5167805107        4.8063737095       29.0133632548
  C         5.1100702233       -0.2097207382       32.3696334766
  H         6.8778140863        3.4941432545       18.2972671130
  H         6.5739773493        3.7891085137       19.9764918061
  C         5.1281804884        2.4667871989       19.1078518563
  H        11.1988496833        2.9930386734       21.8495014739
  H        11.7147306136        3.4380823761       20.3612162163
  C        12.7437262729        1.7426525585       21.0544633734
  C        10.3197617609        7.8081345197       16.7458958029
  C        10.3116342896        5.5378013878       15.7460037572
  H        -0.4742151158        5.1346296773       29.3726602374
  H         0.4277469613        3.7641882777       28.8315093766
  C         1.4984941489        5.2237804991       30.1057006311
  H         5.3067643850       -1.2771855253       32.2451765440
  C         4.7369668625        0.0962813177       33.5887084348
  H         4.5342473129        3.3860807540       19.1564756267
  H         4.6862889757        1.8072900654       19.8415784720
  C         5.1035222467        1.7899349573       17.7538701858
  H        12.6042372457        0.9429955627       21.7507607647
  H        13.0033361309        1.3014275170       20.1324358436
  C        14.0276514601        2.5008542680       21.5375270535
  N        10.2107725710        8.8244357287       17.7475200128
  C        10.6224501836        8.3518703877       15.5033109636
  C        10.6885667860        6.1139545772       14.5209818301
  H        10.0758978956        4.5077436125       15.7271870722
  H         1.6564736090        6.3023770474       30.1535003550
  H         1.0984532675        4.7973136367       31.0411115438
  H         2.4572250912        4.7808602126       30.1269693402
  S         4.2776500754        1.6375012292       34.0800890576
  C         4.7415022402       -0.9326131706       34.6513111221
  H         5.3686783428        2.3586628542       16.9268490963
  H         5.8949671389        1.0149651502       17.9011383670
  C         3.8256218231        1.1336579361       17.3800040447
  H        13.8632628121        3.6108746671       21.7746640174
  H        14.7189800431        2.3740913239       20.7013661226
  C        14.7321264186        1.8610547082       22.7446503618
  S        10.4900124647       10.2941566731       17.0795756575
  N        10.9113140194        9.7426888157       15.5606436610
  C        10.8805521275        7.5733728119       14.3602109088
  H        10.7392636609        5.4407538762       13.6330503357
  C         4.1489074163        0.9265993988       35.7070280513
  N         4.3435544204       -0.3688578954       35.7500759634
  O         5.1049995171       -2.1137896598       34.4831923544
  H         3.5541975918        1.1397782454       16.2195719314
  H         3.1433626525        1.8733903058       17.8890483025
  C         3.6475184131       -0.2276079791       17.9353021588
  H        14.1393619603        1.5864530929       23.5459071282
  H        15.2465444017        0.9835009713       22.3227947657
  C        15.7566303886        2.8057130552       23.3603875028
  C        11.1961776131        8.2692851716       13.1808205197
  S         3.5847484189        1.7240549260       37.1197153076
  C         4.2318081865       -1.1947168556       36.9642116788
  H         4.4328821246       -0.8926237373       17.5421923708
  H         3.9211175101       -0.1299990750       18.9741217590
  C         2.2378464243       -0.8703751154       18.0074832383
  H        15.2971622273        3.2099026605       24.3023132186
  H        15.9222749249        3.6653193744       22.6540246721
  C        17.1228575649        2.2086873333       23.4779615873
  H        11.0090589695        9.3052848970       13.2291397470
  C        11.6447161858        7.7704491594       11.9694208057
  H         3.4157013155       -0.8535369048       37.5595765426
  H         3.8516051701       -2.2397986045       36.7241587393
  C         5.5850756808       -1.3101129866       37.7156430857
  H         1.5483743154       -0.0385053199       18.1722874020
  H         2.0953427096       -1.4601636278       18.8977877172
  C         1.8068589225       -1.6927890621       16.7853711894
  H        17.7093714281        2.5564573641       24.3496003947
  H        16.9807258777        1.1988916880       23.8195621832
  C        17.9487148518        2.3994604559       22.2179790060
  S        12.0906497706        6.1863517778       11.5863593689
  C        11.8432238555        8.7310900534       10.8811159783
  H         6.4993302104       -1.3228740452       37.0674523555
  H         5.7687429535       -0.4669601620       38.3305070674
  H         5.6791852239       -2.1282184126       38.3913011678
  H         1.7316893284       -1.1744902629       15.7822941411
  H         0.8515314193       -2.1334768305       16.9698264726
  H         2.3731325304       -2.6328134205       16.5521060068
  H        17.8511797006        3.4253485602       21.7258084785
  H        17.6693901368        1.5881301508       21.5116689208
  H        18.9703497795        2.0946940703       22.5285820665
  C        12.5845543815        6.7667114319       10.0277510217
  N        12.5046833454        8.1171067689        9.8821972821
  O        11.4945857193        9.8690111025       10.9004444786
  S        13.3506538165        5.7395210302        8.9000215339
  C        12.7828649807        8.8108747972        8.6394561447
  H        12.9632668793        9.8406180311        8.8632334751
  H        13.6422810325        8.3753588056        8.1366621449
  C        11.5847160305        8.9041176103        7.6719893629
  H        10.6535241887        8.8168932226        8.2622026341
  H        11.5891404919        9.8997963470        7.2184238788
  H        11.6252769364        8.0322802408        7.0099428547
  H        21.2797517068       10.3059398793        2.8570599228
  C        21.8695246668        9.4014462595        2.8484686906
  H        21.2283997516        8.5257819257        3.0583490748
  C        22.9399106718        9.4862368352        4.0034133869
  C        22.4489068514        9.3473686504        1.5234449145
  C        22.2897115483        9.7774021148        5.3357591893
  H        23.4270270258        8.5382739963        4.1224465018
  H        23.6765313419       10.2107946180        3.6545804368
  H        22.9664080208       10.2116320833        1.1716076634
  H        21.6699869383        9.2207156325        0.7123366859
  H        23.1436497952        8.5054060323        1.3748931669
  C        21.6375032007        8.5657491634        5.9450317456
  H        23.1541326492       10.1470785427        5.9348477004
  H        21.6376120457       10.6755502941        5.2122160480
  C        20.6371357991        8.9842557651        7.0008152462
  H        22.4370732208        8.0139880205        6.5372871434
  H        21.1693086572        7.8504764585        5.1783536660
  C        19.4157148321        9.5438171895        6.3655573127
  H        20.9911626483        9.7958807549        7.6301043341
  H        20.3514351787        8.0630244575        7.6337129649
  C        18.2814444886        9.6569367812        7.4009396041
  H        19.6232262380       10.5719834985        6.0793334429
  H        19.0778664265        8.9238654100        5.4935747585
  C        17.0557734761       10.4815637158        6.9116125153
  H        18.5691061049       10.1546087251        8.3090768807
  H        18.0046627165        8.6073445549        7.6873409279
  C        17.3479831784       11.7792214731        6.1863507172
  C        16.4330137308       11.1912906523        7.9871848221
  C        15.9821344386        9.6359210573        6.0184987757
  C        16.8210390592       12.8938631751        6.7834381635
  C        17.8103755443       12.1231517805        4.8954207279
  C        16.3268479079       12.5877542438        7.9995718965
  C        15.9418594016       10.5751836358        9.1652474416
  H        16.3891141081        9.3913185576        5.0259795604
  H        15.8078475859        8.6540432924        6.5913948345
  C        14.6618123962       10.4145854728        5.8843473376
  S        17.0957936130       14.3526631853        5.8950230309
  C        17.8515220877       13.4374035614        4.6836920875
  H        18.2116190648       11.3078954870        4.3259065973
  C        15.8763875596       13.2661539597        9.1126682399
  H        16.0375668874        9.5439199406        9.3005121371
  C        15.4802029413       11.2611618789       10.2260681613
  H        14.9044547050       11.3632003661        5.4109772378
  H        14.2448528114       10.5834281577        6.8051851204
  C        13.5470352306        9.7390561279        5.0570741108
  C        18.2244641925       14.0793776944        3.3722722348
  C        15.4969789059       12.6085182138       10.3006985242
  H        15.7846775908       14.3376964841        9.2030715247
  C        15.0595394650       10.8561569162       11.4931453305
  H        12.6288855173       10.1928539828        5.3778586967
  H        13.3563317427        8.7667711867        5.4685933993
  C        13.7010274520        9.7339676263        3.5998414700
  C        18.2236167753       15.4483411068        3.0720464532
  C        18.5966265836       13.1923112254        2.2252562793
  C        15.0344737375       13.2853490152       11.5558464841
  C        14.8808145726       11.9692504526       12.2941060653
  S        14.8467548485        9.3800195955       12.3839433221
  H        14.3255806002        8.8825874478        3.3765915911
  H        14.2555309488       10.6436623315        3.3386742414
  C        12.3894847763        9.7726033835        2.8432593554
  N        17.9832004079       16.4457553601        3.9880764945
  C        18.4298029068       15.9995525049        1.7662769117
  C        18.7532527403       13.7415535340        0.9390880335
  H        18.7665354015       12.1380896702        2.3625671455
  C        13.6330214812       14.0069160319       11.3485182975
  C        16.2044384361       14.1473735537       12.0740923969
  C        14.5131930470       11.6021414711       13.6048686157
  C        14.4424193396       10.2428029914       13.8606025998
  H        11.6337993325        9.4041509356        3.5753367721
  H        12.1248320753       10.7973719035        2.6178642552
  C        12.4047798004        8.9026255525        1.5937091696
  S        18.1628680998       17.8806941714        3.2986813517
  N        18.3767852230       17.4454985237        1.7597404836
  C        18.7443383159       15.1995357677        0.6574585085
  H        18.9480528139       13.0502781771        0.0759193449
  H        13.8214790281       14.8859181793       10.7033478834
  H        13.2238866867       14.3207379225       12.2973097383
  C        12.5440086344       13.1851077110       10.6517660276
  H        16.6097999397       14.8736775300       11.3644111598
  H        15.7223256268       14.7590984442       12.8567769892
  C        17.3167664056       13.3173851438       12.8247351601
  H        14.1812636415       12.3386190623       14.2945505672
  C        14.2302424915        9.5671701792       15.1906400291
  H        11.4449620920        8.8337152194        1.0940136139
  H        12.5346898081        7.9372841370        2.0225953822
  C        13.5029679025        9.3835708241        0.6217723427
  C        18.9575574662       15.8509689823       -0.6292971390
  H        13.0061582827       12.9513884705        9.6768291877
  H        12.3399402396       12.2339244763       11.1174951554
  C        11.1471556780       13.8219658242       10.4731846959
  H        17.5824559110       12.4781823604       12.2049829105
  H        16.9575036114       12.9391359138       13.7483626146
  C        18.4923511311       14.2175416128       13.1750383611
  C        13.9472225552        8.1893151541       15.3389995596
  C        14.0984178489       10.4034478315       16.4244823107
  H        14.0414980639       10.2500558942        0.9769958205
  H        14.3180146712        8.6268999160        0.7255275406
  C        13.1018335125        9.6908183361       -0.8033332509
  H        18.9219465299       16.9244962045       -0.6055849000
  C        19.3234944959       15.3461493339       -1.8822179062
  H        11.3627550513       14.8022594446       10.0870126525
  H        10.6926491578       14.0513266155       11.4687354204
  C        10.1401891464       13.1334891672        9.5684193205
  H        18.8881579043       14.6341555009       12.2482433536
  H        17.9710314504       14.9975773372       13.7077578559
  C        19.5537603645       13.6572415266       14.1111978424
  N        14.0855225863        7.2253316174       14.3107104062
  C        13.7699837841        7.6421418146       16.5885884411
  C        13.8549275880        9.8373081841       17.6814970167
  H        14.2302735136       11.4766912245       16.2834995470
  H        14.0372042766        9.7874387610       -1.3069716495
  H        12.5096193540       10.6224982835       -0.9044047465
  H        12.6479474442        8.8771311897       -1.3652215454
  S        19.7319173139       13.6899632676       -2.2908300891
  C        19.3922657039       16.3629110207       -2.9492119814
  H        10.4916789539       13.0259558394        8.4893814376
  H         9.9844211532       12.1483196572        9.8905581093
  C         8.7757194166       13.8647951552        9.5023361358
  H        20.0407816512       12.8621389999       13.5897598452
  H        19.2282278195       13.1704523787       15.0103872253
  C        20.5967567383       14.6702186696       14.5670789175
  S        13.8848788076        5.7386453940       14.9835102682
  N        13.6183589541        6.2530519220       16.5285760212
  C        13.5738949512        8.3314166729       17.7949183522
  H        13.8530690842       10.4780591847       18.5324329601
  C        19.9936565798       14.2950884763       -3.8398161293
  N        19.8249065600       15.6617150408       -4.0284003693
  O        19.3238496915       17.5805912590       -2.9331845563
  H         8.5681972650       14.1575975856       10.5276517993
  H         8.8752485920       14.6407190462        8.7924848256
  C         7.5874164796       12.9845775478        9.0635357165
  H        20.0970615546       15.1994184643       15.3748832769
  H        21.4648189637       14.1884229167       15.0044053403
  C        21.0948588130       15.7625840385       13.6144074309
  C        13.3559207837        7.5905235379       18.9688410557
  S        20.4113521993       13.3686249837       -5.2485882381
  C        19.8320514739       16.4099580306       -5.2546925178
  H         7.9045480587       12.3364770312        8.2181560979
  H         7.1884940116       12.2472897034        9.8235118455
  C         6.4742518961       13.9029833682        8.4345624748
  H        20.3490094673       16.4058912735       13.2394795220
  H        21.4859966085       15.3495103533       12.7040822660
  C        22.1650387386       16.7157206223       14.2231551188
  H        13.5687977990        6.6015598681       19.1311125075
  C        12.6988820208        8.0324976667       20.1326175959
  H        20.3909866444       15.8603491516       -6.0602568623
  H        20.2961843884       17.3288931352       -5.1795835996
  C        18.4093173850       16.6643236185       -5.8029520537
  H         5.7907968558       13.3010296270        7.8419073043
  H         6.8682118581       14.7058727807        7.8151168224
  C         5.5956469085       14.3842891509        9.6349897185
  H        23.1834797761       16.2866381261       14.1473356673
  H        22.1855727400       17.5465876873       13.5014782716
  C        21.8711105276       17.2528694318       15.6414635050
  S        12.2417238996        9.6664586909       20.4318394569
  C        12.4452884980        7.0714336107       21.2702983884
  H        18.0441814971       17.6472240287       -5.4588297239
  H        17.7703489824       15.8196549120       -5.5800073615
  H        18.5521025529       16.8835240286       -6.8353747946
  H         6.1939913526       14.9914542737       10.3979856433
  H         4.8152530868       15.0248181906        9.1960807009
  H         5.0915888290       13.6080716742       10.1096878625
  H        20.7332207229       17.3803223194       15.7259940430
  H        22.2276528062       16.6638037652       16.4545757968
  H        22.2522369968       18.2328701016       15.7884530059
  C        11.4984573543        9.1133894000       21.9517810373
  N        11.7332937561        7.7712841320       22.2025918019
  O        12.8915804420        5.9324926047       21.3968216401
  S        10.6572186161       10.0863020121       23.1537367263
  C        11.4072252578        7.2927766794       23.5376143988
  H        11.2580339335        6.2436625060       23.4394586196
  H        10.4109650252        7.5335346880       23.9193991082
  C        12.4691416787        7.6757891262       24.5680311012
  H        13.4745306716        7.2591821016       24.4204335510
  H        12.0551837158        7.3456560267       25.4999946091
  H        12.6512712196        8.6795580477       24.4986655532
