352
 i =    47900, time =    47900.000, E =        24.7931483138
  H        11.2203329248        7.3822402158       33.0284331961
  C        11.3692025335        6.5037803641       32.4268109596
  H        12.2557343203        6.5713974277       31.8465053807
  C        10.3057872252        6.5393196246       31.3124503310
  C        11.3407178352        5.2711379642       33.3616768655
  C        10.9661574898        6.0443204393       29.9661898013
  H         9.2834344502        6.0800124377       31.4904767537
  H        10.0846634489        7.5509711470       31.1294452219
  H        12.0661411772        5.3897409506       34.1929661137
  H        10.3401181244        5.2816303563       33.8221985812
  H        11.5258364202        4.4350058308       32.7352174661
  C         9.9427339622        5.8232234430       28.8413984781
  H        11.4874164604        5.1073469551       30.0954468080
  H        11.6986208647        6.8064249426       29.6532490212
  C        10.5163196941        5.6760537543       27.4349033850
  H         9.2419175151        4.9945341790       28.9466735890
  H         9.3238486451        6.7178321611       28.6739912205
  C         9.6651909364        5.0207584062       26.3366043485
  H        11.4167156838        5.1276252215       27.6175228235
  H        10.9014031053        6.6836480516       27.1580341821
  C         8.3760816317        5.8827978859       26.0528072179
  H        10.2000377345        4.9789448995       25.3415999412
  H         9.4131758485        3.9832406297       26.5816964001
  C         7.2852953706        5.2427310836       25.1008094993
  H         7.8768984168        6.3573132419       26.9028740365
  H         8.7134260449        6.8129231935       25.5525059777
  C         6.9308678596        3.8828029864       25.8041378059
  C         7.7389653546        4.4627780132       23.8882389539
  C         6.0732855374        6.2152243478       24.9465295111
  C         7.2485894257        2.7946164922       25.0453405669
  C         6.6488440010        3.5405000881       27.1152890506
  C         7.7494231380        3.1117713597       23.8464579922
  C         8.3389824826        5.0884887982       22.7718343664
  H         6.4239223916        6.9428132415       24.3053610086
  H         5.8298535046        6.9232850220       25.7552682818
  C         4.8978779106        5.5036917388       24.3918974963
  S         6.9990082428        1.3221154665       25.8585835177
  C         6.5519218771        2.2130621459       27.3143048627
  H         6.3149824169        4.3789751144       27.7777156292
  C         8.2508546170        2.4066286379       22.7200708267
  H         8.2406777885        6.1734256453       22.7928040830
  C         8.7678939576        4.3661464582       21.6611177158
  H         5.2083314205        4.9354814143       23.5154540817
  H         4.6718399035        4.7212855289       25.0766203375
  C         3.6841949960        6.1944871470       24.0600686672
  C         5.9656430515        1.6093662984       28.5005868903
  C         8.7221614953        3.0331894431       21.5826850928
  H         8.1854814921        1.3466256981       22.7529778718
  C         9.1189949511        4.6720185115       20.3724752462
  H         3.0938922732        5.6241226609       23.4049160308
  H         3.9735326043        7.0330149552       23.4297414909
  C         2.8110946552        6.5361403379       25.2911958083
  C         5.7636225233        0.2694973804       28.7003017334
  C         5.8017707743        2.3916568206       29.7294378694
  C         8.9644319035        2.2961643157       20.3268976476
  C         9.2070516674        3.5740461942       19.4759975987
  S         9.2040958403        6.1347384708       19.5330185105
  H         2.0475608438        7.2039919819       24.8924744885
  H         3.3786034290        7.0350830389       26.0748988727
  C         2.0616442747        5.3380293109       25.9142406075
  N         5.8453201855       -0.7245306713       27.6663909095
  C         5.4008433899       -0.2847891544       29.9053949677
  C         5.3800504506        1.8358693202       30.9269133465
  H         5.9293969045        3.4449461561       29.5877275049
  C         7.7759722487        1.5285537405       19.7621593380
  C        10.2312717817        1.3733296783       20.3311047500
  C         9.4961001797        3.9602930043       18.1973486367
  C         9.5637151557        5.3292775325       18.0622939394
  H         1.2915509731        4.9389048807       25.2122242069
  H         2.6830923622        4.6342687120       26.4141929321
  C         1.2191902910        5.8209903137       27.1480639330
  S         5.6674814269       -2.1884049974       28.4343665113
  N         5.2694199234       -1.6794867745       29.9177467574
  C         5.1789918519        0.4647626657       31.0655054317
  H         5.1501370669        2.5395242653       31.7337115004
  H         7.5189334939        0.6919675959       20.3481146048
  H         8.0238110803        1.2159403500       18.7414652643
  C         6.5359468920        2.3822805008       19.6667164809
  H        10.4733871987        1.0371634290       19.3819882269
  H        10.0903976546        0.4438079515       20.7593945308
  C        11.4680670956        2.1547097346       20.9203203095
  H         9.6331101648        3.2357365021       17.3754225909
  C        10.0117428403        6.0233990472       16.8421633016
  H         0.3866908577        5.1569685657       27.3271842385
  H         0.7999635269        6.8274007798       27.0070536044
  C         2.0365694995        5.8887417373       28.4831025208
  C         4.9769537783       -0.1212747680       32.3546558269
  H         6.6192194639        3.2289066509       18.9596883928
  H         6.4181765302        2.9096489927       20.5985439146
  C         5.3200025300        1.5336503683       19.2547742524
  H        11.3852773399        2.3989202987       21.9621601308
  H        11.7269507837        3.0904350789       20.3797050349
  C        12.6925798405        1.2386916977       20.7634211762
  C         9.9986810674        7.4005380117       16.6834242568
  C        10.4642064576        5.2105299052       15.6177923379
  H         2.7900460546        5.2080703455       28.5854567716
  H         2.5365781422        6.8593132128       28.5294783929
  C         1.0920418161        5.8642206567       29.7197669452
  H         4.9137883272       -1.1615700229       32.2034552782
  C         4.6691251836        0.3271538688       33.5970283685
  H         4.8555120442        1.2216826150       20.2283470284
  H         5.6165242707        0.5132371966       18.8360734925
  C         4.2317536773        2.2139267431       18.4469661440
  H        12.7140299248        0.6827976427       21.7265907041
  H        12.4462448869        0.5452705188       19.9664802717
  C        14.0402594345        2.0330787930       20.5256298427
  N         9.6870679154        8.3213067466       17.6580617717
  C        10.3683581056        8.0202328115       15.5151847334
  C        10.8253283380        5.8375225327       14.4770824662
  H        10.3123037239        4.1223285060       15.5517719785
  H         0.5901034029        4.9715651645       29.5635856362
  H         1.5537552950        5.8805103138       30.6626446030
  H         0.4011220992        6.7024958792       29.7111860146
  S         4.4919242825        1.9195269886       34.1847441407
  C         4.4610390158       -0.7283773089       34.6085250033
  H         3.9640217495        3.1486671747       18.9891552458
  H         4.6420809564        2.3478197891       17.4515020216
  C         3.0370489616        1.2723881188       18.2378044981
  H        13.9426458736        2.8343951129       19.8267216082
  H        14.5962527142        1.1780291481       20.1612147568
  C        14.5321245513        2.4710322929       21.8592279702
  S         9.8315589143        9.8453865475       17.1037966461
  N        10.0385551556        9.3731683464       15.5314350593
  C        10.7518471809        7.3723481778       14.3391310637
  H        11.0149450893        5.2737071814       13.5607535073
  C         4.1480396759        1.1595311669       35.7993853748
  N         4.2838109782       -0.1882424328       35.8049715464
  O         4.5712008853       -1.9010881256       34.4046187060
  H         2.3156645110        1.9231382900       17.7756374433
  H         2.6662755206        0.9496034320       19.1900478960
  C         3.2891114888        0.0749800416       17.4321180014
  H        14.9935647510        3.4613902740       21.8032492296
  H        13.6586177459        2.5906240074       22.5526731938
  C        15.4312858706        1.4215131062       22.4757750097
  C        10.9614047767        8.1742953335       13.1962180584
  S         3.8573629473        1.9946385999       37.3309561746
  C         4.3382370938       -0.9268677443       37.0555099565
  H         3.7635720535        0.3578854205       16.5778887478
  H         4.0617761584       -0.5495861394       17.8314729929
  C         1.9971627576       -0.7470114256       17.0752033511
  H        16.0105997289        0.7833246013       21.7398193827
  H        14.7464995672        0.6963097530       22.9372514326
  C        16.3668911725        2.1258225307       23.4857754201
  H        10.6831336911        9.2099114624       13.1881468132
  C        11.4790803757        7.8186877749       11.9573658276
  H         3.7141015418       -0.4575626385       37.7659496962
  H         4.1662967621       -1.9606455648       36.7569389269
  C         5.7492728854       -0.8500022210       37.6065228922
  H         1.8513378737       -0.7271530692       15.9856753245
  H         1.0145280321       -0.3191637461       17.4147972322
  C         2.0812925487       -2.2266604982       17.6108107953
  H        15.8094347226        2.9778622509       23.8380940601
  H        16.5087782354        1.5068008920       24.3689101284
  C        17.6955535954        2.4500401284       22.8527625821
  S        11.9369432098        6.3103290328       11.4719911243
  C        11.5459531626        8.9332669145       10.9795326585
  H         6.5221261359       -0.7497099995       36.7927102710
  H         5.9287275237       -0.1012336639       38.3204758466
  H         6.0324999534       -1.7583330135       38.1033031508
  H         2.2064766641       -2.1116220251       18.7233812122
  H         2.8262819554       -2.7994070164       17.1860730721
  H         1.1861681364       -2.7833059285       17.3432588497
  H        18.0862067510        1.6726352196       22.2750938327
  H        18.4635331073        2.6412152706       23.6685580586
  H        17.4842381815        3.3809810553       22.3574162207
  C        12.1247364319        7.0019469316        9.9012116810
  N        11.9080891604        8.3704346264        9.8636617766
  O        11.2534567141       10.1156674768       11.1547690968
  S        12.5401112521        6.1439905355        8.5054740149
  C        11.8272994293        9.2267012037        8.6737805306
  H        12.0355084298       10.3096309007        8.7918029147
  H        12.6362753075        8.9282928801        7.9997422215
  C        10.4491018277        9.0394638694        8.0469216615
  H         9.6623936066        8.8089391231        8.7674691954
  H        10.0222610833        9.9415901905        7.6303230638
  H        10.3698864451        8.1652444662        7.3249705302
  H        20.7400354379       10.1199097735        3.3148501134
  C        21.8140897219        9.9914309780        3.3853462052
  H        21.9737086489        8.9622672896        3.5168644480
  C        22.4666231139       10.8372015157        4.5388485079
  C        22.4631997552       10.2377985396        2.0671373171
  C        21.5800703214       10.9827064081        5.8275764118
  H        23.4384664950       10.2543147166        4.7724235148
  H        22.8631600229       11.7815231735        4.1294789160
  H        23.5178780299       10.0643818562        2.1936206993
  H        22.3622684179       11.3035799246        1.8196726726
  H        22.0084572527        9.6656809953        1.2677757934
  C        21.2317789569        9.6173526214        6.4402900767
  H        22.0732819481       11.5223462147        6.6173181562
  H        20.7016405951       11.6033798752        5.5448708395
  C        20.6353858281        9.6435466280        7.8364735971
  H        22.1669035381        9.0566982825        6.4830670061
  H        20.6708320467        9.0056709479        5.7477215434
  C        19.3216863290       10.4923026586        7.8138387797
  H        21.4923762043        9.9804272192        8.4742410056
  H        20.3582718193        8.6544550961        8.1683295364
  C        18.1718631908        9.6633348313        7.1950451995
  H        19.0355739334       10.6253611423        8.9149795628
  H        19.4656257668       11.4160293902        7.3218757772
  C        16.8466089339       10.3883257563        6.9019707947
  H        17.9278766189        8.9006178287        7.7741557145
  H        18.7103056329        9.2151009568        6.3411230503
  C        17.2391822893       11.7891771367        6.2172861211
  C        16.3780198874       11.1098470605        8.0338614826
  C        15.8323787184        9.6132328407        6.0310111036
  C        16.9331789895       12.8881124921        6.9706889639
  C        17.8210237952       12.1587328651        4.9787484635
  C        16.3183929870       12.5210355008        8.1859158088
  C        15.8486874871       10.4147038393        9.1601864101
  H        16.3725482215        9.5238843350        5.0933457942
  H        15.6607791306        8.6365636492        6.5278120080
  C        14.4608816349       10.3274393809        5.7856986975
  S        17.3061069514       14.3712575374        6.1956404627
  C        17.8708787594       13.4981101936        4.8054310407
  H        18.2361064062       11.3889630010        4.3592599913
  C        15.8689489258       13.1205904987        9.3504645122
  H        15.9002848968        9.3655385033        9.1481488196
  C        15.3031977710       11.0614611181       10.2798370441
  H        14.5614231079       11.3814662880        5.6721406172
  H        13.8207518219       10.1863634931        6.6961642375
  C        13.5525085875        9.7936675388        4.7554636984
  C        18.2676961548       14.1545048691        3.5274034865
  C        15.3940827281       12.4075150620       10.4316801816
  H        16.0096377695       14.2146920648        9.4205768387
  C        14.8910572588       10.7436351005       11.5472771058
  H        12.6385574748       10.3203845221        4.6686336332
  H        13.0404242509        8.9434533459        5.1782177304
  C        14.0627971767        9.5668488046        3.3745541201
  C        18.1512353244       15.5244433942        3.2239919784
  C        18.6484731854       13.3100280203        2.3526724450
  C        14.9633041342       13.1794887709       11.6369021273
  C        14.6891484171       11.7905617443       12.3923223807
  S        14.5000502004        9.2453751218       12.2596123653
  H        14.5675956452        8.6153477466        3.4325540787
  H        14.8434748975       10.3939675235        3.1345660966
  C        12.8729852958        9.4119704232        2.3974204211
  N        17.6956045258       16.4992937435        4.1609702446
  C        18.4759224943       16.0578137642        1.9913945198
  C        18.9972621371       13.8774088145        1.1019531422
  H        18.6711276886       12.2352854156        2.5033929826
  C        13.6959233463       14.0298619131       11.2905501026
  C        16.1479624384       13.9741728753       12.2485190320
  C        14.2652165265       11.3800078382       13.6600568111
  C        14.1891038414       10.0954878158       13.7576051472
  H        12.1523872647        8.7234166225        2.8077463717
  H        12.4597206966       10.4535431918        2.3107661415
  C        13.1241494206        8.7247701276        1.0197450651
  S        17.5748859584       17.9602320029        3.4131116871
  N        18.1907568932       17.4234044102        1.9993281500
  C        18.8788744691       15.3066542325        0.8878364963
  H        19.2363730990       13.1488250631        0.3095668301
  H        13.8520676028       14.7216682385       10.4353729046
  H        13.5266323730       14.6419787860       12.1453483129
  C        12.4913340972       13.2592444468       10.8778676789
  H        16.6096078640       14.6822091531       11.4714605338
  H        15.8346385972       14.6343015222       13.0184048389
  C        17.3880936616       13.2323366467       12.7992784659
  H        14.0210055612       12.0554080680       14.3806224143
  C        13.7311007328        9.3269628617       15.0027450701
  H        12.3834334153        7.9786716663        0.7615748612
  H        14.1231538392        8.1886021254        1.0850275593
  C        13.2185367033        9.7230973921       -0.2253836612
  C        18.9945846315       16.0264410679       -0.3293387931
  H        12.7484543329       12.5052043171       10.0363195088
  H        12.2235455416       12.5367655453       11.6353884144
  C        11.2468301283       14.0972928290       10.6212065125
  H        17.8053510414       12.8516176894       11.9162014351
  H        17.2541738944       12.4110897574       13.4844567010
  C        18.3489521248       14.2909949988       13.2657956663
  C        13.7662275438        7.8847571667       15.1865412524
  C        13.4850204832       10.0958092747       16.2664111331
  H        13.6297322579       10.6813512861       -0.0743970202
  H        13.8923083954        9.3295321355       -0.9479534506
  C        11.8824377297       10.0285552474       -0.9221251786
  H        18.6679908114       17.0215151450       -0.3579197900
  C        19.3176031339       15.6444823157       -1.6331041231
  H        11.3286307760       14.7644862073        9.8016765781
  H        11.0539200483       14.8167991606       11.4492369502
  C        10.0377512653       13.2430218180       10.4750129195
  H        18.4788394734       15.0854124010       12.5690266734
  H        18.0145217824       14.6605940767       14.1978433617
  C        19.6524380214       13.6969172715       13.6607376959
  N        14.1030960076        6.9667796872       14.1824417181
  C        13.5451090676        7.3069023016       16.4068308127
  C        13.2337935524        9.5114210924       17.4827352941
  H        13.5672213507       11.1671381753       16.2534837346
  H        11.7359215172        9.2294592490       -1.6952702747
  H        11.9181851236       11.0006938885       -1.4288733028
  H        11.0364466304       10.0317723331       -0.2619808721
  S        19.6902441715       14.0361876132       -2.2013560168
  C        19.3127842225       16.6166201162       -2.7542290799
  H        10.3164714552       12.3886358483        9.8605766062
  H         9.7888053378       12.7792941107       11.4526766428
  C         8.8469079293       14.0409225461        9.8614742572
  H        19.8234620057       12.9222975726       13.0185823074
  H        19.6205554624       13.2463120541       14.6486491156
  C        20.8927532906       14.6681570392       13.6136297202
  S        14.1360726802        5.4800707838       14.8303418430
  N        13.6389660979        5.9100683092       16.3416378212
  C        13.1961272556        8.0247796557       17.5929358421
  H        13.0443349294       10.1299195419       18.4180129329
  C        19.7309572591       14.6902645987       -3.8320180772
  N        19.5940120013       16.0266514350       -3.8930346782
  O        19.1777093805       17.8243852237       -2.5088752602
  H         8.4347954102       14.5147929615       10.7245873358
  H         9.1739126027       14.7642935457        9.1789144444
  C         7.8854974499       13.0717343459        9.1882177565
  H        21.8426498348       14.1625680495       13.4933730727
  H        20.8969315592       15.3510127874       12.7465325068
  C        20.9671826736       15.4641202131       14.9304956225
  C        12.9994168769        7.3168503930       18.8004587857
  S        20.1812043178       13.8175504719       -5.2403674939
  C        19.5538286144       16.8675662491       -5.0718280044
  H         8.3739571215       12.7862577969        8.2409876172
  H         7.7391553569       12.2209635789        9.8133564177
  C         6.4715207357       13.7136618439        8.9121922062
  H        21.4750260592       14.8034502106       15.5620353879
  H        19.9846215833       15.6879740070       15.2096437360
  C        21.8703553945       16.6805719203       14.8211468322
  H        13.4864789778        6.3132391452       18.8179784828
  C        12.3696525625        7.6609017370       19.9617608026
  H        20.1559876630       16.3977653821       -5.8226662343
  H        20.0920986210       17.7896937337       -4.9247636659
  C        18.1509341325       17.1777231426       -5.5573039873
  H         6.1394938313       13.1450693231        8.0375509222
  H         6.5947693813       14.7871738778        8.7298967943
  C         5.5095839425       13.5842754816       10.0395635988
  H        22.8880873435       16.5166546758       14.5536281614
  H        21.3977201558       17.3066967525       14.0698370351
  C        21.8140170324       17.3020688300       16.1843453159
  S        11.5630450794        9.1390426135       20.2812130331
  C        12.3992312712        6.7450086226       21.1343523252
  H        18.0899010320       16.6330798738       -6.5686946440
  H        18.0261907793       18.1974865510       -5.6016832294
  H        17.4367921370       16.8620595659       -4.7987715456
  H         5.4440224651       12.5809147556       10.4593287801
  H         5.5543363611       14.1061614592       10.9448153007
  H         4.5893366502       13.7405990853        9.4410910013
  H        20.8419298750       17.7930465314       16.4438767610
  H        21.9237081226       16.5948522401       17.0044909244
  H        22.5023739235       18.1429863554       16.3617197068
  C        11.2188489346        8.5125685337       21.9179244492
  N        11.6158039365        7.2973170731       22.1078575315
  O        12.8740362235        5.6026728580       21.1354876456
  S        10.5000494528        9.4846976909       23.1756784949
  C        11.4588403581        6.5751966948       23.3109068214
  H        11.4227675536        5.4883990043       23.0895765833
  H        10.4568436335        6.7954242206       23.6711921096
  C        12.6031514093        6.8750175164       24.2439826941
  H        12.4574721522        6.2921510302       25.1802504664
  H        12.9320252241        7.9453002744       24.5464410119
  H        13.4904708995        6.4727379878       23.8176793309
