352
 i =    73200, time =    73200.000, E =        24.8492936413
  H        11.4799364683        7.5451272257       32.1902952051
  C        11.5411873067        6.4872831912       32.2659389627
  H        12.5032033419        6.3070440869       31.8194104619
  C        10.4523039778        5.9819839217       31.3906783333
  C        11.6144078765        5.9176890429       33.7128148783
  C        10.6917059595        6.4014775545       29.9736501318
  H        10.1908685348        4.9349391942       31.5685682449
  H         9.5538031413        6.5389636612       31.7943631949
  H        10.7115182546        5.2779353487       33.7784470771
  H        12.4572497920        5.3028236301       34.0439960797
  H        11.6073242048        6.7325936227       34.4641336906
  C        10.3021344917        5.3037368208       28.9262554844
  H        11.7067377154        6.5889091618       29.8012781002
  H        10.1670875768        7.2911712183       29.7617141257
  C        10.6595444669        5.7976595488       27.4648782359
  H        10.8123095892        4.3336134199       29.0621767576
  H         9.2170032863        5.3491981031       29.0539778890
  C         9.6418529668        5.1021498239       26.5381681595
  H        11.6633736552        5.4671807091       27.1647244142
  H        10.5207264598        6.9022549329       27.2400387233
  C         8.3895081444        5.9062548633       26.1659773889
  H        10.0721674701        5.1384382318       25.5519857356
  H         9.4226183304        4.1139461786       26.8444685514
  C         7.3670535313        5.1714241355       25.2989031799
  H         7.9906934810        6.3385885854       27.1176815701
  H         8.7575182881        6.7755683732       25.6591740466
  C         7.0718265911        3.8892214031       25.9714605838
  C         7.9097318186        4.4907358316       24.1120982022
  C         6.1164563576        5.9807863865       24.7773917885
  C         7.2906032557        2.7811740453       25.1810853280
  C         6.5965770777        3.5385763743       27.2989951034
  C         7.8526402259        3.1714646427       24.0070965345
  C         8.2239867903        5.1486908105       22.9453882800
  H         5.4775026235        5.5200945078       23.9907035281
  H         6.5184485543        6.9686940754       24.4039647165
  C         5.1616926967        6.2842546469       25.9026999981
  S         6.8212389977        1.3120248427       25.9634626553
  C         6.3925923671        2.1929660609       27.4011238039
  H         6.3737995386        4.3628189403       28.0234313983
  C         8.1713474975        2.5605713678       22.8242639859
  H         8.2495337815        6.1769325463       23.0264225172
  C         8.6330133900        4.5609954739       21.8177377953
  H         5.1619633225        5.4604096613       26.5858781511
  H         5.5145385101        7.1821206544       26.3290201404
  C         3.6892803165        6.4912346542       25.4846720740
  C         5.9027032367        1.5127881327       28.6583528438
  C         8.6041550721        3.2290229257       21.7286978603
  H         8.0582699486        1.4838891453       22.8252940132
  C         9.0042644036        4.9644087767       20.5850148177
  H         3.2242713538        5.6340342391       24.9645992042
  H         3.7265258109        7.1405785881       24.5972122882
  C         2.7853191467        6.8325993044       26.6720836368
  C         6.0221762878        0.1775229898       29.0286814520
  C         5.4317066334        2.3899846871       29.7691031830
  C         8.8725772243        2.4797216491       20.4808154145
  C         9.1524231237        3.8489099721       19.7872783352
  S         9.2743185960        6.4202499695       19.7898097119
  H         1.8164048730        7.2630466298       26.3784864319
  H         3.1503731048        7.6835981057       27.2635930166
  C         2.4440091124        5.5273535842       27.4412403894
  N         6.4034492519       -0.8984068635       28.1866386989
  C         5.7710835437       -0.3332971801       30.3036863666
  C         5.1540975889        1.9110447826       31.0352634773
  H         5.1779006273        3.4010297501       29.5893716583
  C         7.7133774952        1.7866620143       19.7751395661
  C        10.1747474642        1.6511762517       20.4843137305
  C         9.6337372282        4.1987344530       18.4725199051
  C         9.6903698724        5.5458066573       18.2860600999
  H         1.7707589680        4.8477145703       26.7931572774
  H         3.4491246674        5.1775561415       27.6268470372
  C         1.6104981406        5.8997563902       28.6800944384
  S         6.2554955156       -2.3137090383       28.9115808166
  N         5.7764784185       -1.7595893371       30.3740885339
  C         5.2994832674        0.4613508353       31.3292908671
  H         4.7908707144        2.5769082466       31.7483886152
  H         7.5637954815        0.9057510076       20.3490704341
  H         8.0427468229        1.3814159490       18.7681585791
  C         6.4943813945        2.7229035339       19.6267689941
  H        10.4487027344        1.3333880068       19.5107915268
  H         9.8894382607        0.7848731239       21.0975556580
  C        11.3210698945        2.4877616439       21.0805144900
  H         9.8031637267        3.3473232686       17.7111477096
  C        10.0582757745        6.2527858744       16.9987135812
  H         0.6572428034        5.3881272581       28.5999175176
  H         1.5789572981        7.0075706849       28.7044206460
  C         2.3111578968        5.3640562425       29.9404234067
  C         5.0149703896       -0.0944517586       32.6400340321
  H         6.5384914688        3.4825935424       18.8293404233
  H         6.3241119604        3.2743064522       20.5260292460
  C         5.2189556875        1.9562966391       19.4252878374
  H        10.9971645271        3.0525523102       21.9424432933
  H        11.7181482446        3.2537201416       20.4412138160
  C        12.6304299969        1.6491555743       21.3401416355
  C        10.0505889533        7.5957188308       16.7762121166
  C        10.1294497468        5.4224259985       15.7376315725
  H         2.8235357977        4.4465887174       29.6810959842
  H         3.1733635118        5.9650123358       30.1065810815
  C         1.4892617497        5.3375271106       31.2231493693
  H         5.2929626994       -1.1565299214       32.7460403411
  C         4.7290447414        0.4512780812       33.8789813800
  H         4.6465899653        2.5524796503       20.1037002193
  H         5.2892011464        0.9332212735       19.7613498264
  C         4.7294475503        2.0581453290       17.9452073658
  H        12.3962392640        1.0258013863       22.2199926007
  H        12.8643970987        0.9596266816       20.4928473006
  C        13.8543375659        2.5881653274       21.7096990696
  N         9.8020016904        8.5777542034       17.7777788686
  C        10.2578789181        8.2092018027       15.5342037523
  C        10.4728782115        6.0403859906       14.5156749403
  H         9.9926090424        4.3502285613       15.9078333179
  H         1.5248044005        6.2960026946       31.6719591584
  H         0.5087720081        5.0951871603       31.0659169067
  H         1.8446521882        4.6003912040       31.9797786669
  S         4.3699170894        2.0629757024       34.3437616517
  C         4.6911865330       -0.4897547675       35.0265527499
  H         4.4139731604        3.0268923893       17.6118518513
  H         5.5476305046        1.7070137800       17.3991522184
  C         3.4520741534        1.2305907566       17.7164083113
  H        13.4584198395        3.3475364404       22.4122594563
  H        14.2733604981        3.1610899922       20.8878909159
  C        14.9177703894        1.7835180764       22.3988611536
  S         9.5714395549       10.0681644035       17.0358223997
  N        10.1597428183        9.6254006957       15.5846463221
  C        10.5268510568        7.5282337062       14.3850044298
  H        10.6529209041        5.3158083311       13.6795530567
  C         4.2584287821        1.5457396786       36.0303166175
  N         4.2722374160        0.1679795343       36.1734925722
  O         4.8850165541       -1.7359261503       34.9548949142
  H         3.2942878372        1.0604970049       16.6525590420
  H         2.6090057958        1.7842251114       18.0775940881
  C         3.4298002157       -0.1711941455       18.4581804873
  H        14.6312216009        0.8353734013       22.7744453161
  H        15.6638275496        1.5857518293       21.6344021704
  C        15.5253053969        2.7263093595       23.4180268844
  C        10.8238691424        8.2949649355       13.2253715384
  S         3.8748055606        2.5727052073       37.3683933060
  C         4.1911802569       -0.4716565920       37.5610554105
  H         4.2845714584       -0.8124239706       18.1081373220
  H         3.4307907809       -0.1218105082       19.5569922032
  C         2.2140427554       -1.0555890176       18.0003902371
  H        14.9539178880        2.6523777601       24.3807540318
  H        15.3872879119        3.7681261413       23.1588378568
  C        16.9405574546        2.3477284423       23.5946505009
  H        10.7068127659        9.3273303959       13.2354303726
  C        11.2660945743        7.9000295381       11.9857270586
  H         3.4317844071        0.0967855184       38.0744427929
  H         3.7266776008       -1.4595620147       37.4865047046
  C         5.6221886775       -0.5115212157       38.2666811499
  H         1.3548147463       -0.5206967668       18.1641667324
  H         2.0769225165       -1.8742603081       18.6960287142
  C         2.2427875128       -1.6550106273       16.5295466149
  H        17.1778093509        2.7224795684       24.5506515638
  H        16.9336985664        1.3195240546       23.7025031035
  C        17.8332709474        2.7272514159       22.4408114769
  S        11.9012129156        6.3692569219       11.6162011453
  C        11.3777447969        8.9062739706       10.8861787486
  H         6.2387689120        0.3790438363       38.0758157774
  H         5.7300412230       -0.6783739014       39.3642186434
  H         6.0834669252       -1.3908890744       37.8365334634
  H         3.3499873961       -1.6187372322       16.3739896267
  H         1.7168736472       -1.0286591269       15.7893117981
  H         1.8014754276       -2.6661006046       16.3336034580
  H        17.5956686502        3.7365466248       22.0441486240
  H        17.7741889794        2.0926597952       21.5974959679
  H        18.9266699449        2.8391898788       22.8134670637
  C        12.1596748699        6.9793841465        9.9612281541
  N        12.0833874391        8.3008308398        9.8794132046
  O        10.9918704310       10.0560055677       11.0199154017
  S        13.1368711713        6.1535571829        8.7562585824
  C        12.2377243405        8.9995104323        8.6100701077
  H        12.4151585812       10.0335956529        8.9344538163
  H        13.1557879285        8.6919196357        8.1625275501
  C        11.0956963488        8.9977341187        7.6020233566
  H        11.3953776106        9.6278017372        6.8249033182
  H        10.9974759710        8.0363236841        7.1390251161
  H        10.1355821770        9.2342948522        7.9834118642
  H        20.4852468387       11.6578590281        3.1908715685
  C        21.2006094195       10.7926212908        3.1459734601
  H        20.5984142363        9.9068239086        3.2717861100
  C        22.2633362673       10.9418015253        4.1788809907
  C        21.7409258383       10.7436564330        1.7239130837
  C        21.6245933297       10.9437173481        5.5188246156
  H        23.0096604221       10.1621659899        4.1259155612
  H        22.7858728649       11.8586950814        4.0397714223
  H        22.4241433028        9.9130372316        1.4571189964
  H        22.2734132690       11.6311293330        1.4521549538
  H        20.9016275548       10.5918418468        1.0402439333
  C        21.4050327431        9.6217335494        6.1382831975
  H        22.1025075168       11.5416360831        6.3008224782
  H        20.5918078209       11.3561175185        5.4924814270
  C        20.3365398599        9.6529903681        7.1204261695
  H        22.3417381165        9.2151086712        6.5596718813
  H        21.1552372891        8.9720335831        5.2966001387
  C        18.9695702783        9.3515843503        6.5948376174
  H        20.3218407358       10.5874691668        7.6165190682
  H        20.5613212628        8.9685090816        7.9341025672
  C        17.7928001834        9.6689233738        7.6315412800
  H        18.8885167926       10.0606909411        5.7113981066
  H        18.7820276772        8.4140831869        6.0753345031
  C        16.5390510423       10.4435679177        7.1127457390
  H        18.2319248996       10.3648163512        8.3496855788
  H        17.4898952775        8.8161627732        8.1317420074
  C        16.8018046200       11.8175930835        6.2877689209
  C        15.9115028364       11.2220699591        8.2451156198
  C        15.4444422380        9.6225504179        6.2542235450
  C        16.4323374441       12.9455721547        7.0586960045
  C        17.2689680596       12.1850034715        5.0395719760
  C        15.8842505076       12.5863032568        8.2938192975
  C        15.4552715365       10.5537618719        9.3739532877
  H        15.9415519745        9.0667091357        5.4370176005
  H        15.0427789477        8.7947781628        6.8372954717
  C        14.3486074933       10.6076564801        5.6244680419
  S        16.8184821630       14.4417616501        6.2065574966
  C        17.3499739189       13.5520620209        4.8795494324
  H        17.5474531878       11.3748496303        4.4164411725
  C        15.4304467277       13.1749821233        9.4263559620
  H        15.5276178879        9.4825662579        9.4032615125
  C        15.1189328859       11.1726998533       10.5232939409
  H        14.7001755503       11.4550264365        4.9942902567
  H        13.7757897561       11.0459353260        6.4037535870
  C        13.4398111349        9.9414583294        4.5954423922
  C        17.6276850636       14.2961081085        3.6328801887
  C        15.1536126813       12.5493254185       10.6174038805
  H        15.3754425581       14.2130156531        9.3743143679
  C        14.6417264389       10.8564094911       11.7564369012
  H        12.5998790000       10.6108993872        4.5711311007
  H        13.0089839503        9.0169664548        4.9669910864
  C        13.9697765767        9.6705578585        3.1938167733
  C        17.7071393020       15.6943129569        3.4388235478
  C        17.9525154316       13.4602921720        2.4176731895
  C        14.7370353397       13.3265937910       11.8456837217
  C        14.4708914618       11.9653947876       12.5594674096
  S        14.4048217004        9.3815867312       12.5883787738
  H        14.3566197637        8.6901198558        3.1211135642
  H        14.7919449481       10.3825927841        3.1286555544
  C        12.8565005144        9.6540069186        2.1886458255
  N        17.7647607648       16.6413097298        4.4612952925
  C        18.0056995059       16.2235894455        2.2158574441
  C        18.3840990109       13.9989296625        1.2331181549
  H        17.9488731362       12.3836212688        2.4700854760
  C        13.4383784075       14.2682871643       11.5828884571
  C        16.0295671770       14.0702890156       12.3563280777
  C        14.0576962960       11.5936006930       13.8564987265
  C        14.1225696838       10.2104667834       14.0774630756
  H        11.9716354670        9.0312964680        2.4639472365
  H        12.5366425189       10.6938714436        2.0853476878
  C        13.2457729312        9.1614810030        0.8052949759
  S        17.7565092228       18.1725773177        3.7923569900
  N        18.0028486457       17.6622783449        2.2575020527
  C        18.3319134095       15.5030634092        1.0640822418
  H        18.5667827086       13.3861841233        0.3581694812
  H        13.6319774569       14.8831531328       10.7154435769
  H        13.4454681788       15.0163886372       12.3658160866
  C        12.1192028748       13.4318696192       11.3507489832
  H        16.2449200511       14.8806945412       11.6161048836
  H        15.8028932829       14.5841539904       13.2518607092
  C        17.2720036136       13.2561129525       12.6015975489
  H        14.0517053162       12.3519806481       14.6453389630
  C        13.8920877168        9.5532667103       15.3893217342
  H        12.5534095636        8.2617157631        0.6464479529
  H        14.2822784172        8.7525435055        0.8632096400
  C        13.0714369441       10.2027296164       -0.3249264858
  C        18.7367700498       16.2016692051       -0.1272912352
  H        12.2171901834       12.6157472233       10.6556121431
  H        11.9979610814       12.9327614893       12.2866258530
  C        10.9106813689       14.2620168784       10.9894925405
  H        17.6535544913       12.7348337446       11.7044340637
  H        17.0132273463       12.5079048285       13.3454348989
  C        18.3338421764       14.1546876735       13.3047285420
  C        13.9097966083        8.1559955133       15.5430917352
  C        13.6780198454       10.3480178853       16.6742267294
  H        13.1114889772       11.3086024200       -0.0632352702
  H        13.9556903518       10.1144275147       -0.8805560960
  C        11.8911911493       10.0236122324       -1.2511641248
  H        18.6340331728       17.2614665848       -0.0976146710
  C        19.1256772564       15.8184723486       -1.3963280348
  H        11.0846474567       14.5758167774       10.0208424473
  H        10.9041441727       15.1414880302       11.6059807560
  C         9.6348041187       13.4198118029       11.1631572649
  H        18.7241196615       14.8348048554       12.6449339575
  H        17.8533671200       14.7124751869       14.0609630906
  C        19.6204871220       13.3758066583       13.7574567851
  N        14.0257417285        7.2834588500       14.5132512858
  C        13.4718481822        7.5666315237       16.7211040158
  C        13.4511972162        9.7238705341       17.8772050791
  H        13.7289941751       11.4261412842       16.5656909665
  H        11.7559525439        8.9195947833       -1.3424012106
  H        12.0335302015       10.4979006995       -2.2136680903
  H        10.9477759256       10.3588377705       -0.8923717290
  S        19.2539299065       14.2757979326       -2.0923850622
  C        19.1639006088       16.9090545862       -2.4557463837
  H         9.8929990607       12.3494465919       10.9742950284
  H         9.2962692359       13.4616034996       12.2383092610
  C         8.5007124056       13.8868672579       10.2656646291
  H        20.1308371589       13.0612562145       12.8395021125
  H        19.5459198753       12.5459990669       14.4575516520
  C        20.4598911718       14.2366730980       14.6099223106
  S        13.6158926218        5.7983045561       15.0343147989
  N        13.4497554390        6.1535595379       16.6327158222
  C        13.1742767883        8.2623391052       17.9108299513
  H        13.4222022639       10.3530442177       18.7916104725
  C        19.4781181838       15.0426719868       -3.6527774644
  N        19.4562125076       16.3864989527       -3.6463202328
  O        19.0269669541       18.1384700672       -2.3314332533
  H         7.7304982959       14.3700485605       10.8680516396
  H         8.9172939319       14.6993701141        9.5933818407
  C         7.8777914383       12.8337500549        9.3943569950
  H        19.7279621065       14.8904520450       15.0485628576
  H        20.9975408245       13.7087281814       15.4161041543
  C        21.3677828826       15.0136362443       13.7152980348
  C        12.8267342057        7.5691771105       19.0846258559
  S        19.9203666051       14.2437919321       -5.1921740116
  C        19.3712261754       17.1832235634       -4.9571571462
  H         8.6521959892       12.5742558448        8.6970598033
  H         7.4699230770       11.9844706894        9.8671434827
  C         6.8047580026       13.5595931157        8.5161076302
  H        20.9597263932       15.3915583850       12.7520203398
  H        22.1630291184       14.3608273900       13.2855610084
  C        22.1831031228       16.1104384265       14.4660751872
  H        12.9017076584        6.4983611007       19.0488234079
  C        12.3381651336        7.9899238855       20.3150095420
  H        20.1690993398       16.9715222204       -5.6955140249
  H        19.4605306080       18.2627975607       -4.6396172342
  C        17.9847096784       17.1067394406       -5.4598876865
  H         6.4358658603       12.9697976728        7.6885199162
  H         7.0768447127       14.5663518766        8.2332659900
  C         5.5517084749       13.7606468420        9.3272954258
  H        22.4337584421       15.8198181229       15.4902865421
  H        23.0942095655       16.1048672593       14.0241379471
  C        21.4765874993       17.4883280380       14.5874956174
  S        11.8385709812        9.5920803709       20.6943787828
  C        12.2319110853        6.9595845581       21.3601122922
  H        17.9351383198       17.5388419502       -6.4230304529
  H        17.2066176851       17.6041486592       -4.8652472200
  H        17.7278704966       16.0848796757       -5.6334524639
  H         5.1011605329       12.8051203153        9.5664082647
  H         5.6874237343       14.3124219425       10.2232678512
  H         4.7297415432       14.3169059592        8.8555940301
  H        22.0954416418       18.1927288680       15.2029919546
  H        21.5262740926       17.8748783284       13.6391804693
  H        20.4459937070       17.4209155850       14.8954681429
  C        11.4251806643        8.9236222997       22.2838328724
  N        11.6095708908        7.5631925879       22.4419521277
  O        12.6803667071        5.8177148782       21.2155060058
  S        10.4979936969        9.7811647953       23.5092350194
  C        11.4272394040        6.8487771538       23.7344894514
  H        11.2713866946        5.7904302282       23.5935754808
  H        10.6200057866        7.3436081859       24.2910366677
  C        12.7155096750        6.8359198199       24.5093481813
  H        12.5972808582        7.4197148428       25.5182796068
  H        13.5605937069        7.0462574492       23.9188911059
  H        12.8168695818        5.7542796163       24.7462811944
