352
 i =     3300, time =     3300.000, E =        38.8173448064
  H        12.2586985460        6.3992412896       32.1379593139
  C        11.6614988916        5.4372562336       32.1612673259
  H        12.3927794571        4.8446527994       31.8739754221
  C        10.5773640807        5.2654382047       31.1048413214
  C        11.2279634347        5.1323489794       33.5919450999
  C        11.1293163472        5.4975876803       29.6465746861
  H         9.9618787682        4.4335466753       31.2439212945
  H         9.9004626158        6.0611985849       31.3642369984
  H        11.5809591257        5.9825330171       34.1674271592
  H        10.1495813243        5.0575104155       33.6673794501
  H        11.7692049554        4.2401047988       34.0112125028
  C         9.9791773870        5.3989540930       28.6758960020
  H        11.9131322001        4.7459380076       29.4021630220
  H        11.5952490892        6.5221612039       29.6418797392
  C        10.4009627857        5.6548378294       27.2187813236
  H         9.5632230566        4.4270536490       28.6638485626
  H         9.2173366374        6.1040117214       29.0503674670
  C         9.4620200384        5.0797650451       26.2006200421
  H        11.4712662880        5.4899535980       27.0193151980
  H        10.1447406180        6.7623025396       26.9869480981
  C         8.1406380113        5.8315078248       26.0245749788
  H         9.9695843111        4.9904551014       25.2647900487
  H         9.4095968903        4.0609219266       26.3693304637
  C         6.9909562418        5.0576632478       25.3316293073
  H         7.8111951150        6.1679688606       26.9821670512
  H         8.2748785398        6.8132936655       25.4377942056
  C         6.7789159951        3.7060678599       25.9987062008
  C         7.5245452592        4.3955826618       24.1411901924
  C         5.6666073352        5.8079353215       25.1952173009
  C         6.9899423944        2.5916978966       25.2183977794
  C         6.4358661793        3.3183526852       27.3271654996
  C         7.4979304631        3.0177522567       23.9836147837
  C         7.9540179307        5.0637057440       23.0321676660
  H         5.9689090971        6.6824888224       24.4807701518
  H         5.4813182045        6.3229331887       26.1305161198
  C         4.4239719261        5.0788535376       24.5158387255
  S         6.6451484068        1.1659950219       26.0614702197
  C         6.2440607549        1.9999275141       27.4711210815
  H         6.1729811540        4.0572850960       28.0624075931
  C         7.7868818706        2.4353372408       22.8426972678
  H         8.0809296668        6.1064720886       23.0118619921
  C         8.3274608611        4.4163983294       21.8437992315
  H         4.7208216702        4.7234574411       23.5726245467
  H         4.2707533524        4.2273442102       25.0814666386
  C         3.1651434951        5.9861813668       24.3828361653
  C         5.7335794579        1.3797341967       28.7171119440
  C         8.2075410244        3.0975522002       21.6745612410
  H         7.7803538943        1.3379350858       22.8071618703
  C         8.6676315367        4.8726392336       20.6834492543
  H         2.5104095406        5.6250795670       23.6929145831
  H         3.5491301643        6.8498456164       24.0352262111
  C         2.5781751218        6.3679393039       25.7897173404
  C         5.6765160181        0.0064918701       28.9737767730
  C         5.1005500480        2.2632706169       29.8202603645
  C         8.6085087922        2.3641918140       20.4488726664
  C         8.8996045050        3.8144235098       19.7464283533
  S         8.9986534181        6.4173111001       19.9007187895
  H         1.8584851511        7.1917518489       25.7017404017
  H         3.3623414524        6.5788483169       26.5719912290
  C         1.8832762654        5.0680138986       26.3321372568
  N         6.0451014503       -0.9982397185       28.0627951462
  C         5.2737373717       -0.5575041204       30.1956094830
  C         4.7878809648        1.7143049715       31.0833346061
  H         4.9776009068        3.3174170713       29.7649696688
  C         7.4379556633        1.5645458013       19.7907892258
  C         9.9303729812        1.5411587623       20.6807507711
  C         9.3725749048        4.2608269496       18.5248740267
  C         9.4669228111        5.5909700466       18.4900268494
  H         1.3460282152        4.6318150255       25.5569486380
  H         2.5641773959        4.3104711653       26.6653318221
  C         1.0113843967        5.2456806799       27.5830759551
  S         5.9780482380       -2.4699590758       28.8194544749
  N         5.3911293895       -1.9882500670       30.2052497495
  C         4.8731023541        0.2234912322       31.3175894517
  H         4.2401021430        2.4019975595       31.7988800826
  H         7.2367562241        0.5360544762       20.2443401003
  H         7.8431598597        1.4417487375       18.7802959694
  C         6.3024782383        2.4603421204       19.3321405817
  H        10.1392203185        0.6828543767       20.1301447215
  H         9.8245746387        1.1438142624       21.6825539187
  C        11.1967102635        2.4305245086       20.6803884177
  H         9.5735209623        3.5479932048       17.6807818537
  C         9.8336020127        6.2850666144       17.2768778359
  H         0.1966653161        4.5129156842       27.5110422774
  H         0.2768781022        6.0601989507       27.3900215757
  C         1.7186125457        5.4319443106       28.9198218591
  C         4.6064493069       -0.3685860375       32.5954893394
  H         6.6443138518        3.2493786194       18.6538698335
  H         5.8744286271        2.8469367829       20.2760466579
  C         5.2829890081        1.5723694963       18.7894877458
  H        11.1701437930        3.3779059779       21.2203191470
  H        11.5936692105        2.6701754461       19.7069951923
  C        12.4345746581        1.6676194044       21.1384549018
  C         9.8769399094        7.7333037575       17.0239453244
  C        10.1370532352        5.4502854684       15.9840196890
  H         2.4084263525        4.5877854715       29.0706630668
  H         2.2708654572        6.3546714863       28.8894770611
  C         0.7632780839        5.4893463972       30.1674676969
  H         4.7259808687       -1.5125412209       32.5120646444
  C         4.3542545640        0.0763020818       33.8804809561
  H         4.6399879894        1.1557023200       19.5961098427
  H         5.8121752819        0.7877834298       18.2540080489
  C         4.3666086999        2.3174564276       17.8389391229
  H        12.2083907924        0.8039434430       21.8384162144
  H        12.9191375813        1.1596942895       20.3078108394
  C        13.5112132049        2.6488197560       21.6980577326
  N         9.3419633180        8.7164984636       17.9065221920
  C        10.3428594614        8.3368807553       15.8230944160
  C        10.5086716907        6.1025671465       14.8149911808
  H        10.1654378189        4.3547701049       16.0547367860
  H         1.1206524942        5.9735919527       31.0163452675
  H         0.0079535683        6.0369441898       29.8720977280
  H         0.3479581814        4.4850945662       30.4150295344
  S         4.2290551967        1.7257577234       34.4323012260
  C         4.2940620557       -0.9672749319       34.9989342414
  H         4.4667548715        3.3995214629       18.0247370185
  H         4.7931647994        2.2283112923       16.9053330747
  C         2.8739635739        1.7766336803       17.7489638276
  H        13.1441104696        3.4359865128       22.3062810480
  H        14.0481016574        3.1968236381       20.8764761953
  C        14.5233691281        2.0110776857       22.4922836993
  S         9.9002218587       10.1809807014       17.4171542310
  N        10.2713855375        9.7390347617       15.8844487468
  C        10.7700452522        7.5993732109       14.7210629741
  H        10.9217501013        5.5275473508       13.9534940552
  C         3.9992791708        0.9970754282       36.0978254565
  N         4.1513861868       -0.3402841501       36.2349659882
  O         4.2734636699       -2.1523407081       34.6305176819
  H         2.0755543812        2.4750742636       17.4304658137
  H         2.6000164851        1.8048246769       18.7740994517
  C         2.7602478287        0.3086257649       17.2903816757
  H        14.1057402680        1.5253907024       23.4452144130
  H        14.9517974742        1.1436592736       22.0020741175
  C        15.7281084743        2.8614538969       22.9396420929
  C        10.9033593512        8.2461547096       13.4968282849
  S         3.5931751437        1.9712739736       37.4856560148
  C         4.0772023472       -1.1342273592       37.4894787603
  H         2.0667285019        0.3042657749       16.5016806504
  H         3.7421436008        0.1525165693       16.7790686658
  C         2.3624758659       -0.7285277856       18.4443326633
  H        15.2780766901        3.3158138229       23.8011406190
  H        16.1350968356        3.5139337287       22.2069326211
  C        16.9562614295        2.0929266445       23.4156525029
  H        10.5643578928        9.2202353607       13.5547846565
  C        11.5099230527        7.8448180186       12.2737130870
  H         3.5237753990       -0.7511467477       38.3206263962
  H         3.6260638141       -2.0264627656       37.1837165356
  C         5.4402686134       -1.3839135389       37.9451254802
  H         1.4530252824       -0.4621999368       18.9997015944
  H         3.2277797333       -0.7691029045       19.1103850982
  C         2.0055897824       -2.1366895847       17.8106908526
  H        17.5137339910        2.5217367752       24.3116274548
  H        16.6344367188        1.0824399392       23.7388841536
  C        17.9570595747        1.9677288178       22.2508084483
  S        12.0641382596        6.3266664803       11.7738386070
  C        11.3665500111        8.9066199377       11.2391103089
  H         5.4523765056       -2.2787249544       38.5582945550
  H         6.2261475049       -1.6297198007       37.2184414075
  H         5.8929093198       -0.5531608415       38.5409735100
  H         2.4167072704       -2.5639318946       16.8162273508
  H         0.8776549624       -2.3837431186       17.6993184631
  H         2.0990148597       -2.9091231694       18.6773917401
  H        18.9876530167        2.0689830858       22.5795917881
  H        17.7593215429        2.7137971793       21.4107151107
  H        17.7875997918        0.9874365793       21.7627066692
  C        12.2388020188        7.1513043075       10.2201389359
  N        11.9685226314        8.4785498067       10.1454789610
  O        10.9839897438       10.0481722134       11.4628482850
  S        12.6450111720        6.2678650220        8.7159402025
  C        12.1184032707        9.3185553745        8.9211658052
  H        12.2131262884       10.3858203358        9.0273595419
  H        12.8898191200        8.9106669977        8.2427059088
  C        10.8744582372        9.3022983549        8.0519733087
  H        10.1299419782        8.5558090180        8.4013452292
  H        10.4622147811       10.2452627938        7.9971878343
  H        11.1402168503        8.9873791803        7.0368143426
  H        20.9013870561       10.7317182938        3.8691280190
  C        21.8828935494       10.2196101318        3.7718395743
  H        21.5138975353        9.1592161497        3.6446316990
  C        22.8558434689       10.1825343953        4.9674195855
  C        22.6666758153       10.5917188059        2.4466309710
  C        22.1640773984       10.5945741162        6.3205816249
  H        23.1859958532        9.1514468448        5.0354263992
  H        23.6573533828       10.8740869800        4.9826048900
  H        23.0338659768       11.5460694505        2.6644031322
  H        21.8014824682       10.3820201443        1.7820435724
  H        23.4219532851        9.7886104774        2.4334152456
  C        21.2862995026        9.3775873212        6.6342960161
  H        22.9640160267       10.6788557234        7.1297077659
  H        21.5883878334       11.5009686316        6.0963572339
  C        20.4004486785        9.4979168600        7.8331373428
  H        21.8533691039        8.5343767949        6.8348486374
  H        20.7281407880        9.1030663592        5.7849593601
  C        19.2256422862       10.4710022301        7.6755792887
  H        20.7816687020        9.8848340158        8.7719563144
  H        19.9528162459        8.5391441806        8.1112915499
  C        17.9122861337        9.9027792181        7.1734026081
  H        19.0765333359       10.8136899246        8.6133873828
  H        19.4335053701       11.3662781204        7.0672435412
  C        16.6973668216       10.7975081939        6.9338914258
  H        17.5198888034        9.3024444199        8.0502219368
  H        18.0789333773        9.2355395228        6.3215171785
  C        17.0741715023       12.1156433383        6.2599046174
  C        16.2355881356       11.5200525801        8.1850212739
  C        15.6289616095       10.1299562181        6.0892994938
  C        16.9097663283       13.1844931126        7.0326768688
  C        17.6487085942       12.3950254714        5.0149024677
  C        16.3315518919       12.8370576070        8.2651252808
  C        15.7808419572       10.8636026234        9.2559703693
  H        16.3039656134        9.7431118364        5.3476731203
  H        15.0995983488        9.3763392758        6.6747286289
  C        14.4981572394       11.1656037491        5.5788084149
  S        17.3190471650       14.6649906822        6.2628242191
  C        17.6407631436       13.7366745887        4.7880961757
  H        17.8780253814       11.5914181524        4.3509464386
  C        15.9378796476       13.4424424350        9.4236850082
  H        15.7430796706        9.7759114130        9.1778149060
  C        15.4175549978       11.4285419711       10.4235277269
  H        14.9993670112       11.9771197376        5.1324857515
  H        13.8868212320       11.7808380762        6.3257189909
  C        13.5270477321       10.5124421642        4.5986090596
  C        18.1202922166       14.3870702525        3.5593285027
  C        15.4800225524       12.8130360428       10.5511025131
  H        15.8753686236       14.5218565478        9.5975306916
  C        14.9784431103       11.0058774780       11.6834273105
  H        12.6805106691       11.1010542667        4.2072996486
  H        13.0176157871        9.6915779687        5.0079773834
  C        14.3186697551        9.9213274142        3.3129656536
  C        18.0555622558       15.7634810333        3.2729501003
  C        18.6419289123       13.6144720057        2.3793336008
  C        14.9344563199       13.4402467106       11.7973025494
  C        14.7005019266       12.1049078895       12.5485333452
  S        14.4928678859        9.5327452740       12.3031431110
  H        14.9456714708        9.0369421151        3.5256247436
  H        15.0339075152       10.6736407434        2.7740344325
  C        13.3260193446        9.4427415600        2.1780186670
  N        17.5415101924       16.6505765594        4.2267424644
  C        18.3570676306       16.3946023933        2.0810112921
  C        19.0534735975       14.2263951593        1.1644389024
  H        18.6218504623       12.4983330192        2.4387422795
  C        13.5363293888       14.1616409542       11.5374261290
  C        15.7948955560       14.2511340767       12.6991773752
  C        14.2093688081       11.6805997760       13.8012584314
  C        14.1780637085       10.3177578395       13.8547085510
  H        13.4175268743        8.3706634322        2.1183469353
  H        12.2922527902        9.5603807910        2.5679679739
  C        13.7146912565       10.0295922834        0.8306435471
  S        17.6053243413       18.1503014035        3.6449512830
  N        18.2184042794       17.7617872107        2.1671859709
  C        18.8131439148       15.6926406133        0.9014724326
  H        19.1399409304       13.5909398711        0.3198456344
  H        13.6901565695       15.0090921202       10.8332832027
  H        13.0957243280       14.7084135652       12.3537700965
  C        12.4740104381       13.3435254490       10.8456537541
  H        16.3157185309       15.0235167335       12.1514605487
  H        15.1578269594       14.7182132379       13.4221037726
  C        16.9574838398       13.4566364634       13.3712148594
  H        13.8858598188       12.4185533129       14.4732451114
  C        13.8605755778        9.6025901227       15.1289226718
  H        14.6988056601        9.6202354431        0.4755664902
  H        13.9933262123       11.1205341818        0.8394040387
  C        12.6286180816        9.9233402923       -0.1987091092
  C        19.0321921975       16.4163791268       -0.3799185858
  H        12.9100134835       12.8131222483       10.0052478522
  H        12.2222303043       12.6054097827       11.5808557101
  C        11.2748775121       14.1528134219       10.4068176802
  H        17.4998290543       12.9833248127       12.5418151189
  H        16.7586606926       12.8090994250       14.1910490449
  C        18.1091836492       14.3881039755       13.9524925541
  C        13.7446565559        8.2282022248       15.2672600141
  C        13.7721952813       10.3535003349       16.3655994355
  H        12.8217345752        8.8836642350       -0.4794408674
  H        11.5448761960        9.9384664259        0.1014407912
  C        12.9036427437       10.6129132959       -1.5367146851
  H        18.9513821242       17.5011371680       -0.2852268603
  C        19.2510794706       15.9847328558       -1.7084184103
  H        11.4892760460       14.9493248584        9.6617939072
  H        10.9004610730       14.6906872084       11.2831183154
  C        10.1676460568       13.2907346329        9.8489619731
  H        18.3849736618       15.1726884677       13.3247997348
  H        17.6627828995       14.9693144209       14.6934098322
  C        19.2295512648       13.6594990041       14.6653417260
  N        14.1681319683        7.2823995422       14.3042489971
  C        13.4818530635        7.6536879165       16.5115004921
  C        13.4432354539        9.7854094886       17.6055456143
  H        14.0047149690       11.4372226044       16.2695081204
  H        12.0793625239       10.5305838177       -2.2314642732
  H        13.8117302392       10.3221480211       -2.0509384379
  H        12.9351315046       11.6619969021       -1.2985740427
  S        19.7180521707       14.3584335885       -2.1382519402
  C        19.3603151028       17.1419094672       -2.6432360533
  H        10.4338252124       13.4245659647        8.7546167063
  H        10.3629129026       12.1710321686       10.1150156595
  C         8.8085827761       13.8544261709       10.0166506626
  H        19.2436490587       12.5630240993       14.4040957652
  H        19.1398717286       13.7464681423       15.7856238373
  C        20.5748868456       14.3093518811       14.5108432196
  S        13.9069467228        5.8140068445       14.8714268617
  N        13.4720166146        6.2528671164       16.4500414770
  C        13.1508768720        8.3507474693       17.6770730799
  H        13.4943681779       10.3550225863       18.5070441683
  C        19.8966270998       15.2167914720       -3.7525229193
  N        19.8762840714       16.5517513681       -3.7445525589
  O        19.0025872601       18.2991247664       -2.4124441496
  H         8.6304497414       13.4254298248       11.0597915936
  H         8.9644306419       15.0814775955       10.0810487146
  C         7.7457469631       13.3485127306        8.9062235434
  H        21.3528143676       13.5411283336       14.7863932834
  H        20.6482275274       14.5917800716       13.4662888828
  C        20.8408607914       15.5123522984       15.3634184654
  C        12.7379399222        7.6857989612       18.8661391385
  S        20.3818384180       14.4539376328       -5.2817814156
  C        19.9994664016       17.3398858239       -4.9390495860
  H         8.0881870239       13.6074904412        7.9107925326
  H         7.6213392336       12.2589902202        9.0161917825
  C         6.3396256805       14.0250016424        9.0036518799
  H        21.5069301499       15.0480069990       16.0820213817
  H        20.0704949163       15.9500505221       15.9362567646
  C        21.8975979223       16.3969345725       14.5868697027
  H        12.9770248965        6.6105087204       18.9611237328
  C        12.2127096121        8.0400643921       20.0261135877
  H        20.6807892465       16.9707077605       -5.6778529700
  H        20.3042792592       18.3250953619       -4.6392094278
  C        18.5810891867       17.4647759359       -5.6610248263
  H         5.8396722952       13.9081062523        7.9830665426
  H         6.4149942553       15.0779029417        8.9549082636
  C         5.7022169247       13.6065495289       10.3411906293
  H        22.8335585223       15.9637309847       14.7392769999
  H        21.5990168395       16.3849109156       13.5296534981
  C        21.9096895896       17.9242769389       15.0598347309
  S        11.6303009531        9.5553041715       20.5717702116
  C        12.1411124908        7.0008422582       21.1306626418
  H        18.2669175992       18.4375401190       -5.6196479835
  H        17.9074410179       16.8251561702       -5.2759911837
  H        18.6224816404       17.3617347678       -6.7034440995
  H         4.6751568261       13.8948862456       10.3272610912
  H         5.6267059004       12.5424347142       10.5717722494
  H         6.2072108006       14.1298707911       11.1124591349
  H        22.4159521844       18.4552552882       14.3486164880
  H        20.8762588802       18.1695762183       15.2362701700
  H        22.2277518366       17.8569444416       16.0539112998
  C        11.1937734107        8.7730076109       22.1051864569
  N        11.5957587275        7.4882682499       22.2740225540
  O        12.6292454538        5.8840817739       21.0526239792
  S        10.2579660886        9.5068272768       23.3465015946
  C        11.4752614258        6.7313489333       23.4951719094
  H        11.2805143867        5.6992907590       23.2621467251
  H        10.6764210430        7.0878795885       24.2110428569
  C        12.8207114770        6.7562000888       24.1811668417
  H        13.2693058793        7.7793533930       24.2336373864
  H        13.6766382805        6.2110381319       23.5522960741
  H        12.9074256011        6.3265672895       25.1692923874
