352
 i =    74200, time =    74200.000, E =        25.1948892239
  H        11.4556843038        7.1562311840       32.3052117785
  C        11.0781025112        6.1328417490       32.4515574960
  H        11.9792403332        5.5048699470       32.5770539318
  C        10.3047130740        5.6503245213       31.1898172121
  C        10.3217508920        6.1132930307       33.7359063986
  C        10.9032844203        6.1427742477       29.8867527780
  H        10.1789637325        4.5472803521       31.2446197439
  H         9.2662537083        6.0308046582       31.2404478610
  H        10.4210108000        5.0889301485       34.1720889948
  H        10.7035893804        6.8663437855       34.4780605059
  H         9.2669162838        6.4492521860       33.5664634574
  C        10.4797174450        5.3379738846       28.6495044108
  H        11.9409845467        6.0135516791       29.9574918897
  H        10.5961326585        7.2097394521       29.7943145261
  C        10.0114204959        6.1821351045       27.4700154981
  H        11.3978931430        4.7718691748       28.4183432162
  H         9.6931575224        4.6861895482       28.9733406802
  C         9.1856019652        5.2583718370       26.4916381709
  H        10.9434717796        6.5736826470       27.0579578044
  H         9.2644128544        6.8788013389       27.8991183073
  C         7.9937222470        6.0480392891       25.8695325248
  H         9.7055208242        4.5360320592       25.8167177012
  H         8.7042160355        4.6081273249       27.1659963022
  C         7.0005460737        5.1699021336       25.0290295749
  H         7.5712853639        6.6343806522       26.7148460298
  H         8.3555690872        6.9569413967       25.3232394740
  C         6.6134877946        3.8405041359       25.8814511411
  C         7.5547830605        4.3203633118       23.9393820663
  C         5.7519204715        6.0269461704       24.5517841819
  C         6.8656868535        2.7142401910       25.1406461468
  C         6.1608264354        3.5489148199       27.1666626583
  C         7.4924266146        2.9809023970       23.9125505112
  C         8.1263651469        5.0129974643       22.8565522129
  H         5.4544608797        5.7619158353       23.5762653744
  H         6.0516789367        6.9998114002       24.5665075366
  C         4.5260676274        6.0558677542       25.4510627106
  S         6.3704043137        1.2325854941       25.9468938465
  C         6.0750268741        2.1929941029       27.3896614659
  H         5.8148533102        4.3392409196       27.7447524845
  C         7.9174782728        2.3601067345       22.7652510247
  H         8.3144623278        5.9933913781       23.0334547504
  C         8.5506044903        4.3208503110       21.7326147513
  H         4.3635183903        5.0732233380       25.8639214873
  H         4.7866272318        6.7099198810       26.2950067370
  C         3.2115583400        6.4089914802       24.7780117785
  C         5.7740156082        1.5619532061       28.7667545371
  C         8.5413268608        2.9998945860       21.7200330437
  H         7.8642211504        1.2976393251       22.7887668502
  C         9.0088773345        4.7168633905       20.5054281128
  H         2.9567515963        5.6953595180       23.9751157189
  H         3.3404452428        7.3721523231       24.2480226783
  C         1.9354431062        6.5637117769       25.6305708262
  C         5.9671085462        0.1658678544       29.0481923244
  C         5.2385941224        2.4166448093       29.8694421251
  C         8.9808188379        2.3606435329       20.4264505351
  C         9.3613520193        3.6691611506       19.7115221832
  S         9.1891746057        6.2769597836       19.6610410485
  H         1.1767269594        6.4517692330       24.8625947481
  H         1.8291961561        7.5848002228       25.9567575337
  C         1.7179829800        5.4953366489       26.6976787502
  N         6.3887758909       -0.8523519805       28.1172169014
  C         5.7506365329       -0.3441025895       30.3296294949
  C         5.0238810901        1.8072802489       31.1203080778
  H         5.0085661258        3.4614205061       29.7548592864
  C         7.8224943451        1.5456717768       19.7728621547
  C        10.2168618883        1.4235093575       20.5389436461
  C         9.8398311261        4.0625154950       18.4770679683
  C         9.6613010848        5.3613943774       18.2458712236
  H         1.8761129376        4.5147344617       26.1867476222
  H         2.6354982622        5.5555340128       27.2720369159
  C         0.4150945672        5.6181771707       27.5094232165
  S         6.5084346912       -2.2169317939       28.9309143362
  N         5.9588761050       -1.7306697180       30.3752798901
  C         5.3327733426        0.3804554338       31.4458487252
  H         4.7002101004        2.4207353064       31.9023854381
  H         7.5573805902        0.7053830061       20.4061106757
  H         8.1934991002        1.0806297145       18.8406153395
  C         6.6007712267        2.4447969682       19.5784151468
  H        10.2768337513        0.7905710588       19.6177834047
  H         9.9442529787        0.7058056807       21.3563822138
  C        11.5190626443        2.1655026018       20.8798151069
  H         9.9884834640        3.1954804004       17.8462013395
  C         9.8836894267        6.0550806346       16.9279967047
  H        -0.3977204353        5.2864500178       26.8725659797
  H         0.2037075772        6.7062486442       27.6892809379
  C         0.3974350878        4.8049109891       28.7218797620
  C         5.2305526844       -0.2543732913       32.7574848314
  H         6.6318495691        3.1498942885       18.7175046369
  H         6.4760692938        2.9863889739       20.4896014054
  C         5.3283957319        1.5549577328       19.3242829690
  H        11.2177431862        2.9230949256       21.5959279084
  H        11.8479570224        2.6598918436       19.9681598656
  C        12.6836998924        1.3416481667       21.4063779360
  C         9.9545256873        7.4563454110       16.8053902047
  C        10.2480443631        5.2812304011       15.6820429621
  H        -0.5792571086        4.4490845344       28.7783850435
  H         0.9996296054        3.8797630878       28.6116977224
  C         0.8402814631        5.6145051114       29.9510666110
  H         5.6175841665       -1.2170550058       32.8408581094
  C         4.8894570058        0.2500227700       33.9772983962
  H         4.4393658258        2.1088394033       19.5530205033
  H         5.3784654430        0.7664026980       20.0594130004
  C         5.3160613983        1.0810537117       17.8096871599
  H        12.3392247912        0.7779315508       22.3077529361
  H        12.9575463965        0.6717244569       20.5770077694
  C        13.9348639065        2.2406389513       21.7821239834
  N         9.7879871588        8.4699325903       17.8304540441
  C        10.2242600736        8.0262352305       15.5476960642
  C        10.6108609778        5.8582644645       14.5040143760
  H        10.1561210596        4.2274049885       15.6936388539
  H        -0.1456892685        6.0505443697       30.3667858738
  H         1.3367802126        4.9477412632       30.7893304976
  H         1.6471034180        6.3470902911       29.7216351038
  S         4.4618335271        1.8678691263       34.3565186438
  C         5.0455831826       -0.7244251542       35.0773530349
  H         5.6478487273        1.8374383693       17.0835504196
  H         6.0243606952        0.2668803405       17.5794419683
  C         3.9317717683        0.4710568193       17.4247971588
  H        13.5392239151        3.1876479318       22.1364804481
  H        14.5191781623        2.5146468214       20.9432279599
  C        14.8681274364        1.5589430334       22.7731994941
  S        10.0257774804        9.9823844470       17.1442994989
  N        10.3229308828        9.4225818250       15.5872431583
  C        10.6455656904        7.3295025272       14.3942543306
  H        10.7677149339        5.2680363836       13.5794523881
  C         4.4200590746        1.1979115023       36.0495778292
  N         4.5407866805       -0.1792156827       36.1867520078
  O         5.2908754114       -1.9253386843       34.9569038276
  H         3.8614906515        0.2274750314       16.3738312903
  H         3.2530619098        1.3284478406       17.5401570587
  C         3.4136977134       -0.7924866399       18.1811289526
  H        14.2971124432        1.2193739700       23.6096661846
  H        15.3926259228        0.6621478449       22.4075569902
  C        15.9289657080        2.6168051695       23.2073243189
  C        10.8208084259        8.1314071066       13.2238932598
  S         3.7468539995        2.0521266274       37.4867800048
  C         4.5202897949       -0.8899840054       37.4743000071
  H         4.0987752946       -1.6626251092       18.0594966364
  H         3.4041854666       -0.6349952752       19.2503420994
  C         2.0270394674       -1.0921384469       17.6673105185
  H        15.5564461208        3.4071784001       23.9630727223
  H        16.0600564291        3.2754206938       22.4310286899
  C        17.2032269685        1.8811246481       23.5938702939
  H        10.4065589924        9.1212257550       13.3745217149
  C        11.4923086437        7.8979036759       12.0786646964
  H         3.7018355626       -0.6112778062       38.1037537835
  H         4.3596010746       -1.9442271975       37.3274464499
  C         5.8730057892       -0.8710207134       38.1570618267
  H         1.3866040424       -0.1877138206       17.5661560870
  H         1.6978652525       -1.7868568060       18.4149668134
  C         1.9751700628       -1.8124246189       16.3205471117
  H        17.6862826115        2.3308892036       24.4866474777
  H        16.9358665991        0.8644112247       23.9271640145
  C        18.1717555453        1.7566050981       22.4873332018
  S        12.1949436227        6.3896918540       11.5386103453
  C        11.5080888576        8.9617456788       11.0640579810
  H         5.8467894923       -0.0711592510       38.8435320658
  H         6.1124756432       -1.8428489205       38.6731867607
  H         6.5381868905       -0.7303713520       37.3054703549
  H         2.0855191974       -1.0982882789       15.5021660126
  H         1.0089466726       -2.2509504952       16.2789400929
  H         2.7892462037       -2.4812164151       16.0900367237
  H        19.0479981893        1.1651172219       22.7496612890
  H        18.4909834946        2.7620518516       22.2313738352
  H        17.8691198137        1.2990608790       21.6435434649
  C        12.2441330992        7.1072493742        9.9453243199
  N        11.9938446115        8.4620430732        9.9141225190
  O        11.3140152058       10.1282173601       11.3052845981
  S        12.8897188812        6.2606660492        8.5929798996
  C        12.2316765590        9.3602089878        8.7748431730
  H        12.5009732488       10.3713366549        9.1606872824
  H        13.0854909324        8.9938449623        8.2899548555
  C        10.9034417974        9.5762794329        7.9927232918
  H        10.4549949284        8.6156694757        7.8569250597
  H        10.2257790020       10.2732137282        8.4461301937
  H        11.0877527490       10.0176078098        7.0112806801
  H        20.1566350652       11.7373125939        3.3843754433
  C        20.4760787259       10.7389271637        2.9813878977
  H        19.7852577467        9.9660830016        3.4027350367
  C        21.8997773109       10.5286949997        3.5604938879
  C        20.4441761665       10.5833710359        1.5025920098
  C        21.8408731320       10.5024816952        5.1051446834
  H        22.3871091329        9.6340701059        3.2565307412
  H        22.4773527659       11.3734157171        3.3296579932
  H        20.6298196755        9.5754953735        1.1843545075
  H        21.2919327936       11.0871501697        1.0532177689
  H        19.4943957482       10.8763222036        0.9457889594
  C        21.3225386376        9.2220809169        5.6029752209
  H        22.8217386833       10.6119542013        5.5790635631
  H        21.2462698033       11.3212166935        5.5114716693
  C        20.3341855772        9.2460919390        6.7842444623
  H        22.0802110934        8.4510947519        5.8761284371
  H        20.8528740316        8.7044143203        4.7419893312
  C        18.9552993899        9.6472018344        6.2416309898
  H        20.6572800904        9.8634632410        7.5636141917
  H        20.2173509060        8.2595827351        7.2677011665
  C        17.8283989739        9.7109480775        7.3318822051
  H        19.1154706875       10.5991552227        5.6636487830
  H        18.6528598878        8.8966094780        5.4395081836
  C        16.5850983964       10.4296122383        6.7548053621
  H        18.1726681259       10.3025686196        8.2376349956
  H        17.4946682086        8.7035252449        7.5983612374
  C        16.8984661147       11.7771048142        6.0940669586
  C        16.0943933850       11.1157401689        7.9847636126
  C        15.4729148489        9.6324975608        6.0116749104
  C        16.5024918322       12.8338931316        6.8662546792
  C        17.2216706765       12.2007113410        4.8228578056
  C        16.0294908668       12.4524715188        8.0701057156
  C        15.5618188339       10.4477706688        9.1368174460
  H        15.8246168518        9.2561196230        5.0977071692
  H        15.1747108828        8.7587735439        6.4814949505
  C        14.2018186445       10.4519405277        5.7865868686
  S        16.6936847840       14.3958932400        6.1265313414
  C        17.3658551219       13.5465356663        4.6944644998
  H        17.4543364074       11.4366561889        4.0626196422
  C        15.5910040785       13.0299324343        9.2487401908
  H        15.8184279876        9.4190182989        9.0737187856
  C        15.1058442811       11.0705157446       10.2832805274
  H        14.4635420579       11.4553841263        5.4338357765
  H        13.7306632340       10.5260720377        6.7436305516
  C        13.2253711790        9.7935734427        4.7817869677
  C        17.7840695420       14.3118373954        3.5113128555
  C        15.1259459700       12.4292372326       10.3907090602
  H        15.6774210493       14.1167565182        9.3532113488
  C        14.6369826587       10.7640593280       11.5184123093
  H        12.3146699353       10.3897678634        4.6894230959
  H        12.8410021148        8.8627434560        5.1824630581
  C        13.6500688942        9.6507512677        3.2619057912
  C        17.8957213030       15.7087015058        3.4033481575
  C        18.1857994459       13.5561597103        2.3179389731
  C        14.7476393013       13.1714470221       11.6480371135
  C        14.4935231992       11.8225337118       12.3092245194
  S        14.4131635103        9.2913836416       12.3007907641
  H        14.5293794643        9.0177543808        3.1165714926
  H        14.0549318607       10.5766006238        2.8566287079
  C        12.5104012572        9.1030372996        2.3028500917
  N        17.6507502223       16.6824723133        4.4029895778
  C        18.1127620625       16.3312793619        2.1624936072
  C        18.5061963702       14.1672952106        1.0944852557
  H        18.3576978609       12.5012693774        2.3439323441
  C        13.5769566618       13.9864053404       11.4114914475
  C        15.9623562169       13.9072858831       12.2471176510
  C        14.1885187229       11.4968160207       13.5891250112
  C        14.1269802345       10.1173746607       13.7583113093
  H        11.7558269649        8.3507966601        2.6511782448
  H        11.9583070933        9.9631849641        2.0068016627
  C        13.0611865822        8.8074541540        0.8801152760
  S        17.5473609630       18.1528993124        3.7375680374
  N        18.0376904406       17.7848889851        2.2593153387
  C        18.3950279795       15.6570049604        0.9143294610
  H        18.8843852114       13.5498263642        0.3498220566
  H        13.8700394742       14.6997926205       10.6437786762
  H        13.3512815251       14.5138993898       12.2955807456
  C        12.3659697364       13.1363432787       10.9501654500
  H        16.3157323744       14.7538459207       11.5675835938
  H        15.6855203718       14.4691208270       13.1272724216
  C        17.1531028550       12.9539690332       12.6175804065
  H        14.0305341705       12.2912570457       14.3117824167
  C        13.9287646032        9.3480479914       15.0712068950
  H        12.2998456087        8.1149516371        0.5310976683
  H        14.0628545844        8.3203767391        0.9197986329
  C        13.0999689687       10.0454625025       -0.0718171730
  C        18.6938925991       16.4285195621       -0.2568536300
  H        12.6885448901       12.4743710353       10.1099016816
  H        11.9560107297       12.5088692152       11.7159445832
  C        11.1557767212       14.0162760421       10.5271642761
  H        17.6191795520       12.6784647499       11.6461300888
  H        16.8313086519       11.9899469433       13.0300916449
  C        17.9954914183       13.6808225511       13.6909976441
  C        13.8990539976        7.9185630925       15.2087916982
  C        13.7790456874       10.0530412290       16.3497343427
  H        13.3350396760       10.9738740506        0.5029958713
  H        13.8582918992        9.9179396269       -0.7759934560
  C        11.8455522477       10.3193499091       -0.9688725516
  H        18.6429290296       17.5012560222       -0.2084825045
  C        19.0687392429       16.0399154228       -1.5327236500
  H        11.5776220670       14.6382332734        9.7945856830
  H        10.7221101876       14.6576082983       11.3143568068
  C        10.0979437408       13.1131510847        9.9809240584
  H        18.0059353370       14.7666474983       13.4669656659
  H        17.6725894030       13.5093865076       14.7154771369
  C        19.4499078489       13.2184915910       13.6571794199
  N        14.0565257445        6.9773559323       14.1477626755
  C        13.6156011850        7.2002512348       16.3688341699
  C        13.4190752187        9.4142826801       17.5496912080
  H        13.7252649901       11.1752512359       16.2579410470
  H        11.5224089740        9.3539653738       -1.3453168841
  H        12.1322113274       10.9965109082       -1.7350569615
  H        11.0288160233       10.7703290509       -0.3688367888
  S        19.4423652210       14.4373712404       -2.0771210481
  C        19.1047071299       17.1210220997       -2.5341795217
  H        10.5950800481       12.2749728124        9.3991867910
  H         9.4655195876       12.6458477610       10.7941395121
  C         9.0328926991       13.8100100367        9.1086519221
  H        19.6829974589       12.9662912698       12.6298422980
  H        19.5443138788       12.3024994779       14.2044877476
  C        20.3442481067       14.2789899382       14.3483405023
  S        13.9328346799        5.4413407609       14.6285579663
  N        13.5080512215        5.7934904878       16.1072244397
  C        13.3977983303        7.8708708936       17.5738161998
  H        13.1940576342        9.9887351347       18.4268314532
  C        19.5227455522       15.2348562808       -3.6813251511
  N        19.3813899988       16.5651386867       -3.7355534242
  O        18.8802632425       18.3304743889       -2.2809064484
  H         8.4826610022       14.4500811853        9.7939252447
  H         9.4425148228       14.4948656344        8.3948826268
  C         8.1162552730       12.7113650775        8.4327486245
  H        19.8069897661       14.8017042821       15.1407204062
  H        21.0853724497       13.6929369567       14.9582707916
  C        20.8339000886       15.3048377985       13.3809997924
  C        13.1687879015        7.0403199813       18.7504839523
  S        19.8776456972       14.2819020641       -5.1081773950
  C        19.1891879278       17.4252606877       -4.8652726711
  H         8.6946706836       12.3896233310        7.5923304712
  H         8.0188131136       11.8167178186        9.0656569190
  C         6.7555828322       13.3133550224        8.0875841105
  H        20.0587049556       15.6577662362       12.6427515687
  H        21.6548869201       14.8523833090       12.7511554268
  C        21.5592176410       16.4598537778       14.0900482392
  H        13.3601049041        5.9937676044       18.5208480473
  C        12.5916357014        7.2697589196       19.9618179044
  H        19.5393745002       16.8563096874       -5.7783997162
  H        19.8871965009       18.2763830986       -4.6507182463
  C        17.6902197057       17.7380918213       -5.1132435444
  H         6.3065508514       12.8523588507        7.2244828374
  H         6.8750944907       14.3922432432        7.7805677203
  C         5.7621487525       13.3039761474        9.2768962236
  H        22.2627215064       16.1751687421       14.8202191461
  H        22.2046617975       16.6633866520       13.1967216170
  C        20.5001395828       17.5105293387       14.4977658714
  S        12.0187480876        8.8293055821       20.5063058407
  C        12.4821907317        6.1289739633       20.8357162944
  H        17.1847918485       16.7734893304       -5.2282991665
  H        17.4976080907       18.3837688211       -5.9786404195
  H        17.2360068079       18.2752697116       -4.2706083146
  H         5.7333737208       12.3115461839        9.7892138745
  H         6.0708519962       13.9241682378       10.1239630569
  H         4.7026079163       13.5853321151        9.0607143977
  H        20.9140870988       18.3850167503       15.0248885967
  H        19.9130165718       17.7395335937       13.6237324922
  H        19.7642452756       16.9438853792       15.0752156930
  C        11.6157620986        7.9609549473       21.9986824901
  N        11.8749187247        6.6158466214       21.9380590729
  O        12.8597170100        4.9731694871       20.6337196146
  S        10.5921965804        8.3381068494       23.3037172016
  C        11.6537782346        5.7111492317       23.0961621878
  H        11.5174585983        4.7064827794       22.7869512167
  H        10.7593507233        5.9201219733       23.6999887267
  C        12.9320298633        5.7221609834       24.0358473160
  H        12.7938475600        5.1398993990       24.9971578914
  H        13.1891060823        6.7497575472       24.3519682517
  H        13.7857046789        5.3896794968       23.4326722756
