352
 i =    95700, time =    95700.000, E =        25.1755147526
  H        10.2411345048        4.6348295455       31.7823326603
  C        10.5835784429        5.5433261082       32.3666199826
  H         9.7598175793        5.9437939708       32.9031891156
  C        11.2995110393        6.4687086541       31.4093373684
  C        11.5518016481        5.0887265021       33.4816841417
  C        11.6054864312        5.9129015786       30.0633917649
  H        10.6453467885        7.3587947537       31.2817404420
  H        12.1227164939        6.8274887341       31.9555218642
  H        12.5382744387        4.7322519122       33.1658199913
  H        11.7012325048        5.9266517221       34.0734355251
  H        11.2127954117        4.2350596760       34.0397154454
  C        10.4172978035        5.7685416570       29.0358997407
  H        11.8173287491        4.8800665367       30.2304046234
  H        12.4741206354        6.3906043639       29.6511521629
  C        10.9255107408        5.6299908780       27.6287355494
  H         9.7944238660        4.9225750834       29.3016316049
  H         9.7588916863        6.5923339200       29.2863035597
  C         9.8685622921        5.0108947850       26.6715734145
  H        11.8522377088        5.0303532455       27.7732587739
  H        11.2172737143        6.5920103335       27.2547804606
  C         8.8192497579        6.0220511766       26.2721349306
  H        10.4965471845        4.6142724092       25.8600258475
  H         9.5886251433        4.0274423467       27.1659921307
  C         7.7056280306        5.3141839366       25.3860356265
  H         8.3581472704        6.3910919678       27.1884219284
  H         9.3872657562        6.7679308006       25.7255953366
  C         7.3850641569        3.9495297133       26.0335341941
  C         8.1721109850        4.6631580356       24.1310748636
  C         6.4976519055        6.2509150872       24.9614920922
  C         7.5553787538        2.9089931348       25.1801326130
  C         7.0093140175        3.5500290433       27.3180546001
  C         8.0742346965        3.3539798598       23.9666917866
  C         8.5260235404        5.4029369860       22.9739643071
  H         5.8470038802        5.7741385217       24.2775183658
  H         6.8595847689        7.1221856104       24.3553975530
  C         5.5759207840        6.6189995478       26.1658238412
  S         7.0870387991        1.3550523545       25.9064297803
  C         6.7944941378        2.2283372425       27.3826487431
  H         7.0097695991        4.2182575028       28.1756273253
  C         8.4576397320        2.7784726757       22.7770103499
  H         8.5654407953        6.4243791787       23.0269903292
  C         8.8480712394        4.8427172318       21.7309583810
  H         5.6783517558        5.8389983745       27.0460332074
  H         5.9225987831        7.5756303011       26.4535025995
  C         4.1070028568        6.7384428788       25.7504099096
  C         6.1784746574        1.6269379085       28.5934123353
  C         8.8887165238        3.4522910538       21.6560342316
  H         8.4363214097        1.7357733776       22.7255910806
  C         9.2930188826        5.1716451956       20.4712100792
  H         3.8649945391        5.9471479750       25.0865277737
  H         4.0720954686        7.6010244628       25.0750567303
  C         3.1876334415        6.8747119503       26.9925734773
  C         6.1211023665        0.2090163440       28.8750764040
  C         5.6970378793        2.5307122193       29.7466682296
  C         9.3524803231        2.7707790293       20.4346179732
  C         9.6122884330        4.0418129216       19.6799993514
  S         9.7282219936        6.5996182198       19.7158950098
  H         2.4829522524        7.6578671614       26.8308673792
  H         3.7503481600        7.3017005939       27.8178487135
  C         2.6353070770        5.5516356174       27.4151394581
  N         6.5576483323       -0.7874437339       27.9765027333
  C         5.8689901679       -0.2906225775       30.1231344679
  C         5.2646432163        1.9346961284       30.9303554921
  H         5.7802879931        3.6110495662       29.7556590111
  C         8.2917193123        1.9980180239       19.7115427460
  C        10.5657737630        1.9547148802       20.5665647702
  C        10.0102741250        4.3970905212       18.3529597627
  C        10.0946374850        5.7474021255       18.1747069653
  H         2.1639962771        5.1232499478       26.5345065522
  H         3.4089313425        4.7432747299       27.6470020147
  C         1.5812051887        5.6247777397       28.5355576121
  S         6.5419438516       -2.1786787755       28.7441386797
  N         6.0064438521       -1.6867482150       30.1823885089
  C         5.5473779011        0.4959507961       31.2520772069
  H         4.9572206197        2.6138973815       31.7396390088
  H         7.9731285916        1.1203603223       20.2727944781
  H         8.7646180892        1.6714557129       18.7921293253
  C         6.9275552484        2.7250581679       19.4257841946
  H        10.9613769549        1.7023054018       19.5522997701
  H        10.3710619822        1.0014174547       21.0508530352
  C        11.7314182643        2.8120692198       21.2013630935
  H        10.1888926721        3.6547311605       17.6460377461
  C        10.2201701604        6.4720692254       16.8589520342
  H         0.7621314205        4.9105391217       28.4119196582
  H         0.9845656643        6.6102587925       28.4867477028
  C         2.3304923584        5.7426745169       29.8595413558
  C         5.1857291040       -0.1166586853       32.4902363296
  H         7.0591683051        3.3518775916       18.5767780353
  H         6.5877394871        3.2257503016       20.2629225578
  C         5.8489763067        1.7389942536       18.9620404723
  H        11.3952095280        3.2928619618       22.1344083286
  H        11.9715218291        3.7416931637       20.6773652775
  C        13.0858658578        2.1201618088       21.3959242294
  C        10.3093740218        7.9187084106       16.7130592576
  C        10.4529401421        5.7622286685       15.5860490395
  H         3.2846822467        5.1561330963       29.8715668134
  H         2.7349122188        6.7443710699       30.0366994727
  C         1.5522388880        5.3054458452       31.0337682594
  H         5.4616384431       -1.1612379491       32.4338444800
  C         4.8335944811        0.2399677114       33.7782961112
  H         5.5285560415        1.0614035862       19.7540005788
  H         6.2350411197        1.1593386768       18.1424485121
  C         4.6791705482        2.5119851081       18.4289589721
  H        12.8137465738        1.1583887204       21.9142271572
  H        13.5856621048        1.8118183614       20.4749673165
  C        13.9811093811        3.0102839759       22.2164477456
  N        10.2091204611        8.7633888011       17.8417056716
  C        10.5776550550        8.5811529930       15.5599323813
  C        10.7481188209        6.4603974683       14.3974580388
  H        10.3796991485        4.6756711146       15.5975477183
  H         0.8672737545        4.5825245562       30.8223631472
  H         2.2091437801        4.8931721984       31.8265387049
  H         0.9856958772        6.1363346639       31.5526119627
  S         4.5227254030        1.7460348755       34.3904125704
  C         4.6200128196       -0.8876156412       34.7141400296
  H         4.4621080414        3.3998826191       19.0812155211
  H         4.9979323660        3.0831393063       17.4858980798
  C         3.4126095319        1.6355294686       18.1529772112
  H        13.4579763788        3.3428630151       23.1447910972
  H        14.2924286866        3.8826763226       21.6435137948
  C        15.1800745243        2.2852081551       22.6395243769
  S        10.1398337594       10.2665742654       17.2766546502
  N        10.5413190161        9.9182211670       15.8050488207
  C        10.8936824624        7.9420300110       14.3435845589
  H        10.8374228096        5.9150748761       13.5221441679
  C         4.3078308927        0.9701407300       35.9720901732
  N         4.3663760238       -0.3918279932       35.9633783359
  O         4.8701806596       -2.0895067772       34.5635512830
  H         2.5858033247        2.1501177375       17.7418856685
  H         3.2229605617        1.4558765567       19.2462043020
  C         3.6570666397        0.3829868786       17.3597181060
  H        14.8947231405        1.3820742625       23.1675826192
  H        15.6701856952        1.9648214129       21.6951935113
  C        16.0847994851        3.2133791558       23.4475763087
  C        11.2928729221        8.6376327182       13.1873252517
  S         4.0542021238        1.8359108908       37.4982295579
  C         4.3211899183       -1.2159753382       37.1371858899
  H         3.7481175555        0.5697843132       16.3416989756
  H         4.5785539177       -0.1710678729       17.6282169636
  C         2.6279781204       -0.7352189772       17.5155184157
  H        15.3718611982        3.7300855817       24.1741790285
  H        16.4824379103        4.0890876727       22.8825494754
  C        17.2450304745        2.3974984180       24.0706850472
  H        11.1065781710        9.7090649929       13.2567898036
  C        11.6868297894        8.2905886582       11.9360727622
  H         3.7116356916       -0.7342383964       37.8502076914
  H         3.9309802657       -2.1716446182       36.9448885698
  C         5.6961224236       -1.4890265134       37.6140523275
  H         2.5525196875       -1.3773369324       16.6249065386
  H         1.5540576968       -0.3947045111       17.7632973489
  C         2.8708832943       -1.6400586989       18.7023715070
  H        17.5141758637        2.8699790473       24.9742876768
  H        16.9826809467        1.3211932922       24.3895942782
  C        18.4071644201        2.3171665352       23.0956361014
  S        12.1325848556        6.6805004291       11.3945391086
  C        11.9745234457        9.3175025215       10.8526512918
  H         6.5445151886       -1.5423413731       36.8624856453
  H         6.0221138921       -0.6080636481       38.2112362896
  H         5.8003049687       -2.3526523954       38.3556362498
  H         2.1547596557       -2.4301404896       18.7333795745
  H         2.5341792539       -1.1855676980       19.6172590658
  H         3.8680998866       -2.0294451215       18.7456347163
  H        19.1094836978        1.5325921461       23.3039442652
  H        18.9284799691        3.2411349622       23.0903522084
  H        17.9924420904        2.0277851859       22.0864209580
  C        12.4918615695        7.3205885926        9.8050301709
  N        12.4545139804        8.6649356183        9.7781488715
  O        11.9219718420       10.4959401253       11.0368713185
  S        13.2066945899        6.3663666056        8.4988746315
  C        12.6887591917        9.4296498093        8.6060016564
  H        12.9183319593       10.3884418527        8.8448871202
  H        13.6088557911        8.9139529262        8.1559624692
  C        11.4249130315        9.5409256328        7.7104648899
  H        11.6177405314       10.3137622575        6.9565627218
  H        11.2328038454        8.6361731076        7.1039364815
  H        10.5622164567        9.8381988117        8.3007303764
  H        21.9418106367       11.3385019982        3.4113409356
  C        22.8272026400       10.6804688793        3.5278025802
  H        22.3903265674        9.7456262410        3.2091426227
  C        23.2837706716       10.7007998672        4.9730665783
  C        23.9645174616       11.0532855119        2.6276646954
  C        22.1657068518       10.1928453442        5.8595333748
  H        24.1791727437       10.0247293849        5.1339210327
  H        23.4310833784       11.7143166973        5.2988883334
  H        24.6474525909       10.1692350226        2.6158197144
  H        24.4534949644       11.9607794307        3.0570192509
  H        23.6576189552       11.3250560355        1.6234799661
  C        21.8017179042        8.7390203881        5.9258076584
  H        22.4894675938       10.4988699925        6.8008821873
  H        21.2762826896       10.8846250690        5.7454458916
  C        20.6313091286        8.4922743402        6.8499219005
  H        22.6783702037        8.2678021172        6.3170708765
  H        21.5864568868        8.3898437922        4.8934760208
  C        19.2599494353        9.0686041805        6.3172928545
  H        20.8916062804        8.8572372053        7.8525216407
  H        20.5647939429        7.3633319943        7.0187676994
  C        18.4587993475        9.5389405883        7.4551552342
  H        19.3144563676        9.8259390171        5.4840670056
  H        18.8119205632        8.2395018221        5.7957967587
  C        17.2389731890       10.5162918982        7.0321164088
  H        19.0337645899       10.2158491694        8.0542987863
  H        18.1099070910        8.6541950968        8.0404762881
  C        17.6758534627       11.8367239764        6.3679912990
  C        16.6565442989       11.1610315383        8.2070739774
  C        16.0875281386        9.8204032477        6.1755570691
  C        17.2739742668       12.9018451596        7.0873027979
  C        18.2360649614       12.1424171611        5.1229965784
  C        16.6126517870       12.5221795610        8.2705911672
  C        16.1631862385       10.5136886756        9.2990289423
  H        16.5493902204        9.5253619155        5.2243219209
  H        15.9160393587        8.9061872842        6.7077429344
  C        14.8770432494       10.7659531198        5.9870916793
  S        17.6401554710       14.3805997761        6.3372338327
  C        18.2222063465       13.5401989754        4.9529670610
  H        18.3336784523       11.3328682662        4.4667735656
  C        16.1541134212       13.1863129434        9.3423183298
  H        16.2130451939        9.4212668749        9.3312587752
  C        15.8797450233       11.1714231149       10.4619315416
  H        15.1780366277       11.6654336566        5.5224555882
  H        14.2929933411       10.7935726612        6.8783101969
  C        14.0294351608       10.0334247423        4.8929429717
  C        18.6772867097       14.2366309176        3.7477891899
  C        15.8783684042       12.5180180448       10.5507441123
  H        16.0243713952       14.2417229471        9.3297989508
  C        15.4029615865       10.8973282264       11.6828311107
  H        12.9630313955       10.3584364721        4.9698214940
  H        14.0500601107        8.9763147405        5.0493946286
  C        14.5633201057       10.2689645478        3.5091965090
  C        18.4940906627       15.5954284269        3.4740414898
  C        19.1119102296       13.5032391691        2.5369270339
  C        15.5492163976       13.2907275029       11.8044405390
  C        15.2078081040       11.9819979549       12.4932683052
  S        15.0465695412        9.4072906660       12.4216713084
  H        15.5890026695        9.9104011218        3.2604100231
  H        14.5296634345       11.3185754781        3.3180601833
  C        13.6584382734        9.6771597315        2.4390284684
  N        18.1846507657       16.5313774340        4.4661924397
  C        18.7752957985       16.1182703274        2.2648604950
  C        19.3302248096       14.0825025382        1.2949931319
  H        19.2622035721       12.4545495595        2.6000714597
  C        14.2970126595       14.1580914541       11.8052450992
  C        16.6971811772       14.0954122471       12.5081582422
  C        14.8600309013       11.5990273088       13.7802397197
  C        14.6953476983       10.2663564475       13.9549342203
  H        13.3724710950        8.6451504604        2.6768580234
  H        12.7163184546       10.1622210941        2.3839140931
  C        14.2977950502        9.7703666585        1.0538189272
  S        18.3067318537       17.9523283646        3.7157846303
  N        18.6327857112       17.5126462730        2.2201292269
  C        19.0651122904       15.4772811520        1.0810499212
  H        19.7087333826       13.4781870530        0.5235820061
  H        14.4040273660       14.8997918622       11.0583519985
  H        14.0582948973       14.6522205158       12.7586821088
  C        12.9929207932       13.4515705917       11.3611387661
  H        16.9945298712       14.9409880992       11.8590925900
  H        16.5573554382       14.5094005044       13.5323065700
  C        18.0165204408       13.2590367465       12.5520284654
  H        14.7105090555       12.3607197623       14.4763251534
  C        14.2480084362        9.6598618256       15.2469472287
  H        15.3115976445        9.2916828680        1.0229872274
  H        14.4161981664       10.8420823405        0.8689041852
  C        13.4740805606        9.1348591542       -0.0775888616
  C        19.3425422632       16.1744508602       -0.1079495881
  H        13.1523495029       12.7060614326       10.6285430436
  H        12.6007804232       12.9169872644       12.2411320492
  C        11.8488925611       14.3978455844       10.9170529403
  H        18.4183080780       13.0982795755       11.5362508210
  H        17.8408605149       12.2255400864       12.8677376543
  C        19.0196755619       13.6298710157       13.6479152871
  C        14.2593587590        8.2931768199       15.3540520458
  C        14.0177811048       10.5319758418       16.4233059146
  H        14.0818045985        8.9372347669       -0.9592127261
  H        13.0586348961        8.1779414731        0.2093957815
  C        12.3935729635        9.9913307327       -0.5521923289
  H        19.0529547052       17.2063576615       -0.1149018196
  C        19.5526203321       15.7403877112       -1.3879088727
  H        12.3773916105       15.1254064533       10.3583510592
  H        11.3012912712       14.9501215179       11.6902990270
  C        10.8596194969       13.6498172262        9.9580394234
  H        18.4085642203       13.4576876135       14.5629691656
  H        19.8388158687       12.9249726649       13.6400357025
  C        19.5781694341       15.0864933720       13.7193110004
  N        14.3329619369        7.3381593971       14.2635552812
  C        13.8222542144        7.7270729866       16.5243321263
  C        13.7519389559        9.9155570623       17.6423496958
  H        14.0587186089       11.6116814467       16.4442217541
  H        11.6413631330       10.1023750193        0.1980246813
  H        11.8901702784        9.5787970125       -1.4203507591
  H        12.7193536903       11.0158090257       -0.8683433940
  S        19.7809202726       14.1594116069       -2.0336300408
  C        19.7291338582       16.8227324121       -2.4123699408
  H        10.6147640586       14.1593092310        9.0226872769
  H        11.2135478315       12.6638100102        9.7172882361
  C         9.6692864449       13.3148826192       10.7882444530
  H        18.7642053283       15.7262054590       13.8744645949
  H        19.9605049463       15.4609908952       12.7640493741
  C        20.5178964670       15.3480457452       15.0044576479
  S        14.1970031694        5.8511436209       14.9395817854
  N        13.7871748831        6.3441014504       16.4538031647
  C        13.5975216866        8.4386775447       17.6959355841
  H        13.5525385172       10.4505481594       18.4913289838
  C        19.9722813664       14.9593808714       -3.5269659969
  N        19.9419596733       16.2879727036       -3.5664819909
  O        19.5543596249       18.0363280178       -2.1319930417
  H         9.4693819222       12.3300580447       10.3112434770
  H         9.9831370105       13.0953042594       11.7489220959
  C         8.5396100116       14.3957933763       10.7867918664
  H        19.7689283163       15.7075626957       15.7324489380
  H        20.8999586593       14.3510984822       15.2399938835
  C        21.6072306401       16.4172403485       14.9331985881
  C        13.1725491186        7.6754538551       18.8288082853
  S        20.2241813172       14.0796790496       -5.0621509828
  C        19.9548541202       17.1078624598       -4.7689220511
  H         7.8824184562       14.1843503471       11.6088082044
  H         8.9373200034       15.3699729329       11.0817141043
  C         7.8172395280       14.2369548102        9.4264526141
  H        22.4371205735       16.0414710477       14.3173172954
  H        21.9453819369       16.5273818282       15.9735354499
  C        21.3132041367       17.7873576995       14.3672733092
  H        13.4369532539        6.5806735810       18.8369042466
  C        12.6934284915        8.1354168908       20.0365911262
  H        20.6208790170       16.7105078624       -5.5752798451
  H        20.3938593426       17.9953544441       -4.4330732942
  C        18.5480732484       17.4025252110       -5.4014640351
  H         8.3718780010       13.5687745062        8.7271768149
  H         7.7813842011       15.1787578152        8.8675379744
  C         6.3631478671       13.7477977356        9.5556380141
  H        22.2321071189       18.3856888292       14.2542439038
  H        20.8633273612       17.7330983387       13.3862820675
  C        20.4017290472       18.5724777163       15.2850809342
  S        12.0978879378        9.7155922994       20.3330896621
  C        12.5589025469        7.2228094561       21.1659716418
  H        18.1040697251       16.4733426131       -5.6403040033
  H        18.5307242214       17.9959280096       -6.3555011243
  H        17.8671318755       17.8066756107       -4.6392444701
  H         5.8844989295       13.6250683795        8.5780913951
  H         6.1907332381       12.9037818238       10.1656934121
  H         5.8126047256       14.4660279567       10.1424569865
  H        20.9441591983       18.9197104106       16.1813051559
  H        19.9964193712       19.4840419037       14.8509857386
  H        19.5377164548       18.0239294996       15.6115553910
  C        11.5748668374        9.0599462486       21.9583952218
  N        11.8317079765        7.7901535548       22.1789256582
  O        13.0566460528        6.0972638554       21.1699212738
  S        10.8545708459       10.0434267805       23.2138436446
  C        11.5633203202        7.0370594136       23.4797190159
  H        11.2155519170        6.0281612326       23.2395283374
  H        10.7801434503        7.4730994095       24.0862652193
  C        12.8894111131        6.7310951740       24.2339084425
  H        13.4792096496        5.9852564069       23.7804050274
  H        12.7821138116        6.3150045820       25.2336564729
  H        13.6565118192        7.4728101530       24.3187605791
