352
 i =    59700, time =    59700.000, E =        24.7249090909
  H        10.9599699576        4.3257352622       31.5129294542
  C        11.0320998522        5.4005876441       31.7963535626
  H        10.0298785432        5.7929600844       31.7509042412
  C        11.8609582790        6.2960689368       30.8621698773
  C        11.3444583953        5.6524919736       33.3071945643
  C        11.9013617602        5.6226830276       29.4899879648
  H        11.3938257255        7.3077233781       30.8188522824
  H        12.8448320196        6.3453367920       31.1653017815
  H        10.4510857830        5.7233757078       33.9802090176
  H        11.9240799323        4.7954754154       33.6627189627
  H        11.7245814421        6.6384390319       33.5412092553
  C        10.5330769821        5.4173999517       28.8478149855
  H        12.3077826484        4.6770988537       29.6960655756
  H        12.6175830622        6.1229395785       28.8249034259
  C        10.6668829497        5.4436148915       27.3234593770
  H        10.0775386724        4.4783773604       29.0809422729
  H         9.7965802845        6.1389218539       29.1232511704
  C         9.4607039069        4.6993995776       26.6371110489
  H        11.5040722134        4.8291923970       27.0224751499
  H        10.7846000781        6.4377604220       26.9294151232
  C         8.2377242941        5.6390747846       26.3223500317
  H         9.7484290977        4.2259795754       25.6645192807
  H         9.2099092397        3.9595395489       27.3427604152
  C         7.2469607849        4.9412318930       25.5293991784
  H         7.7524235247        6.1003667269       27.2247674535
  H         8.6926360807        6.4539649562       25.7542386786
  C         6.9153951818        3.5970111035       26.1981848727
  C         7.6808539557        4.2093115425       24.3106457411
  C         6.1067865591        5.8256087121       25.0143514450
  C         7.1270695623        2.4661106210       25.4243268989
  C         6.4319879337        3.2211669616       27.4635285239
  C         7.6675013370        2.8605769049       24.2079467132
  C         8.1942317819        4.8384709831       23.1561108934
  H         5.8719482194        5.2600705611       24.1587049339
  H         6.4228905389        6.8040583118       24.5581035422
  C         4.8623475928        6.0166410555       25.9049549671
  S         6.7504209552        0.9824038462       26.1643669892
  C         6.3175192332        1.8834110623       27.6146779388
  H         6.1811660371        4.0247233717       28.2096353154
  C         7.9907905297        2.2711131804       22.9255075867
  H         8.2095379003        5.9277524040       23.0208692679
  C         8.4877101959        4.2100201909       21.9038309857
  H         4.5914504300        5.2161706122       26.6552314242
  H         5.2127533279        6.8856181290       26.4217722078
  C         3.6152507478        6.2498799808       25.0520210474
  C         5.8603708937        1.2267956818       28.8945437901
  C         8.4924770182        2.8576281472       21.8054540197
  H         7.9946826239        1.2107145739       22.9132321886
  C         8.8236318526        4.5410885158       20.6023138313
  H         3.4284891459        5.4690209045       24.3748949799
  H         3.7763047722        7.1604605778       24.4793564681
  C         2.3122252968        6.3996801971       25.9521545582
  C         5.7765791911       -0.1733859379       29.1577074007
  C         5.4287467078        2.1664011650       29.9908626465
  C         8.7742775496        2.0505694197       20.5662668588
  C         9.0235613678        3.4226132346       19.7963351829
  S         9.0342835116        6.0627493916       19.8010082793
  H         1.5611032894        6.9252389654       25.3125998189
  H         2.4602310572        7.0445752482       26.8545624914
  C         1.7410784813        4.9664544354       26.2041983266
  N         6.0370977417       -1.1487726242       28.2475141783
  C         5.5506919528       -0.6151193922       30.4515981154
  C         5.1483637074        1.6678389545       31.2713517593
  H         5.2482336566        3.2310012089       29.8529494417
  C         7.4958093769        1.3644587928       19.9792411264
  C         9.9713918381        1.1457735964       20.6840074583
  C         9.3453904342        3.8000952857       18.4886618558
  C         9.3294724481        5.1609832515       18.3214686827
  H         1.0314438674        4.7564864705       25.3999107991
  H         2.4762966057        4.1764193064       26.2176048284
  C         0.9886141391        4.7474882010       27.4892662977
  S         6.1207756242       -2.5749236163       29.0421255589
  N         5.7671534723       -1.9626920190       30.5576261778
  C         5.2585516479        0.1764781020       31.6056422152
  H         4.8099497889        2.4281435557       31.8977543252
  H         7.2433808760        0.7758079277       20.8512097213
  H         7.7804517526        0.6317669305       19.1478487297
  C         6.3275397902        2.2503979709       19.4986952183
  H        10.0620097703        0.6937378737       19.7058082023
  H         9.9613136176        0.3567609841       21.3903849022
  C        11.1815213242        1.9560240389       20.8786942289
  H         9.6152267621        3.0317865108       17.7723632714
  C         9.6967398604        5.7892677245       16.9883301942
  H         0.6409933346        3.7613431965       27.3909780181
  H         0.1570882222        5.4311960783       27.7292059737
  C         1.9921244884        4.7401267326       28.6826540278
  C         5.2033302360       -0.4318564798       32.8859217207
  H         6.7454139711        2.8048483791       18.6813023286
  H         5.8219622827        2.9967822049       20.1701712362
  C         5.2267975093        1.3560638187       19.1372728382
  H        11.0750438663        2.5627430608       21.8603952035
  H        11.3913863490        2.5940004547       20.0260332681
  C        12.4017513675        1.0767536196       20.8642549539
  C         9.8039885832        7.1795453676       16.7784357028
  C         9.8923137245        4.9777688417       15.7605046062
  H         2.5306791880        3.8292941841       28.6833344516
  H         2.7515630117        5.5038850329       28.7519326998
  C         1.1077953196        4.7981162543       29.9221059658
  H         5.6955739437       -1.3754826147       32.9299802090
  C         4.9485232781        0.0887080576       34.0762027690
  H         4.7855954471        0.8971320316       20.0701092433
  H         5.5573723132        0.4584101920       18.4706804183
  C         4.1149550687        1.8914165022       18.2333493536
  H        12.2582457587        0.2825293051       21.5746486073
  H        12.4717599292        0.5724668813       19.9354767549
  C        13.6862597393        1.8716918374       21.2185876875
  N         9.5324928266        8.1154482080       17.8765403153
  C        10.1066504038        7.7951312284       15.5953543767
  C        10.0553354753        5.6076566778       14.5106675954
  H         9.8189995410        3.9753264994       15.8647607446
  H         0.1775296399        4.1752136212       29.7345612384
  H         1.6219914023        4.3690058798       30.7621836858
  H         0.7839500357        5.8303273336       30.2284074976
  S         4.2972171317        1.6499484222       34.4032183216
  C         5.0584977364       -0.8290474061       35.2843550172
  H         3.6538112177        2.7846724915       18.6554278933
  H         4.6339247812        2.2020891976       17.2858158874
  C         2.9683631235        1.0225705572       18.0394596636
  H        13.6342826661        2.8290957845       20.7397266738
  H        14.6545440594        1.5609567008       20.8395252765
  C        13.8725561111        2.1731782932       22.7101668076
  S         9.7525838474        9.5890624882       17.1934981210
  N        10.0900344873        9.1970151812       15.6782162147
  C        10.3022733385        7.0783483883       14.3889167843
  H        10.1226645950        5.0256860581       13.6459008152
  C         4.2018713669        1.0790763910       36.1152210574
  N         4.6365628676       -0.1642478351       36.3568473179
  O         5.5672925063       -1.9822714234       35.3198548074
  H         2.1211040564        1.6630870932       17.6519575073
  H         2.7192056808        0.6185744270       18.9862611761
  C         3.1332641509       -0.0932205432       17.1165566796
  H        13.0068741235        2.7271965114       22.9076648194
  H        13.8007672624        1.2160851410       23.3638996860
  C        15.0962108498        2.9734853282       23.0747940718
  C        10.6332989720        7.7884302796       13.1961937256
  S         3.8842206810        2.0443322300       37.5914271308
  C         4.5498027817       -0.9181728482       37.6384760246
  H         3.4447369187        0.2354612932       16.1102733839
  H         3.9271557275       -0.7827792015       17.5028869945
  C         1.8163001026       -0.8472904759       16.8590981601
  H        15.0540803845        3.2972781383       24.1451344755
  H        15.2122486641        3.7685554481       22.3278251306
  C        16.2906001483        2.0682623292       23.1366547142
  H        10.4649594237        8.8483305796       13.2549145746
  C        11.2743011500        7.4223710275       12.0305109705
  H         3.8503646621       -0.4435406143       38.3473313424
  H         4.1372637779       -1.9038906420       37.5007522611
  C         5.9936948943       -1.1417350359       38.2780868827
  H         1.5696132077       -0.8382729824       15.8062551773
  H         1.0181493777       -0.2901441033       17.3508777107
  C         1.7575063646       -2.3111138181       17.3258337180
  H        16.6285821756        2.1128952119       24.1209053038
  H        16.0997250147        1.0007827543       22.8668058943
  C        17.4171515124        2.4997092281       22.1539996216
  S        11.9048465273        5.8791738700       11.7282264040
  C        11.4060592390        8.4905614473       11.0159026919
  H         6.1476140960       -0.4222857857       39.0615998925
  H         5.9767360255       -2.1469985899       38.6923854519
  H         6.8667646136       -1.1722697331       37.5956350139
  H         2.0763383858       -2.3923375855       18.4059261961
  H         2.4000061780       -2.9360430829       16.7328351144
  H         0.7240088283       -2.6160367839       17.3263508975
  H        17.2758371740        2.0752623833       21.1789822796
  H        18.3854893290        2.2311430788       22.6009114490
  H        17.3776835508        3.5568506862       22.0183245589
  C        12.3854785696        6.6510723371       10.1869935541
  N        12.0944038479        7.9468273258       10.0172111981
  O        11.0803041615        9.6603076843       11.1874906931
  S        13.2036311773        5.7758802798        8.8691856509
  C        12.3367453606        8.6744239855        8.7930596262
  H        12.5195144931        9.7499939996        8.9433094844
  H        13.2357441694        8.2889400793        8.2967879105
  C        11.0623648410        8.4220604625        7.9670321848
  H        10.1804685644        8.9130290199        8.3361347419
  H        11.1390663445        8.8758778009        6.9887345600
  H        10.9192059490        7.3787401007        7.8803113989
  H        21.9622654711        8.6997446430        3.3939542267
  C        22.5539042761        9.5737305146        3.4155055019
  H        23.4864264118        9.3157639394        2.8853825261
  C        23.0346518868       10.0642523400        4.7841256847
  C        21.9228049496       10.6120669566        2.5353685200
  C        21.8600339358       10.5110369936        5.6743834895
  H        23.5610980549        9.3641578701        5.4093252696
  H        23.6846480605       10.8808141270        4.7396278582
  H        21.2873818188       11.3551937536        3.0320737494
  H        21.4664548614       10.0739266116        1.6623618490
  H        22.7414176001       11.2007070279        2.0350182045
  C        20.8770317217        9.3754107579        6.0713200922
  H        22.2659929841       10.8196775804        6.7032155199
  H        21.4424739225       11.3820757162        5.2136426392
  C        20.1097522819        9.4998215993        7.4063193935
  H        21.4495314493        8.4572304702        6.2168018398
  H        20.1702516601        9.3692024735        5.2028822244
  C        18.9002753912       10.3578473552        7.3245913811
  H        20.7430266157        9.7965107549        8.1804198647
  H        19.7394582817        8.4680097696        7.6629183717
  C        17.6020528290        9.5948122374        6.8648006826
  H        18.6832270099       10.9044865678        8.2442358739
  H        18.9997949003       11.1433748122        6.5947523140
  C        16.3756940693       10.5084212342        6.7436830789
  H        17.3066235389        8.7981612996        7.5841254617
  H        17.7713958592        9.1679796919        5.9136027756
  C        16.7021931963       11.9024095861        6.1658660977
  C        15.9514830072       11.2075941223        7.9514831706
  C        15.1770980648        9.7652464068        6.0793936098
  C        16.4420849272       12.9597994887        6.9839928836
  C        17.2696349965       12.3673048785        4.9462651674
  C        15.9139707415       12.5410206572        8.1598397466
  C        15.5764325482       10.4728438295        9.0566382294
  H        15.5177586117        9.3510901592        5.1843189227
  H        14.7928498400        8.8757357699        6.6198409617
  C        13.9586610307       10.7086004722        5.7623332858
  S        16.7409605720       14.4776786984        6.2422359596
  C        17.2371793569       13.7051831484        4.7879158560
  H        17.5699704917       11.5766227249        4.2108814040
  C        15.4350173194       13.0456693614        9.3170243710
  H        15.7287825217        9.4144781820        8.9967002609
  C        15.1216715511       10.9559989181       10.2720019832
  H        14.3783178979       11.6011544426        5.2958250153
  H        13.5271606550       11.1244738104        6.6694956133
  C        12.9319109184       10.0770248170        4.8489791608
  C        17.6750231771       14.4138202161        3.5321754317
  C        15.1078120224       12.2877305174       10.4657966239
  H        15.4286937132       14.1139162029        9.3882144661
  C        14.6382143655       10.4905019447       11.5068630292
  H        12.0830518091       10.8069445418        4.8710702879
  H        12.4575472586        9.2231860236        5.3310539048
  C        13.3862005740        9.9043464424        3.4292483748
  C        17.7796192149       15.7998459719        3.3933228530
  C        18.0359354375       13.5816596235        2.3643833042
  C        14.5809024406       12.9362942369       11.7415793610
  C        14.2942292356       11.5211546976       12.3400882872
  S        14.3461386866        8.9641878508       12.2919570740
  H        14.0979040074        9.0321857733        3.3882302166
  H        13.9335936328       10.7845089242        3.2150423558
  C        12.1801345406        9.6468844723        2.4780395347
  N        17.4709777923       16.7987392234        4.4190488521
  C        18.0630479647       16.4288133468        2.1736519971
  C        18.2903879674       14.2083718134        1.1323147989
  H        17.9509015072       12.4903130401        2.4354766143
  C        13.3819704822       13.7629806965       11.5287925954
  C        15.6400461525       13.6907674872       12.4443462863
  C        13.9660303389       11.1612041916       13.6719066101
  C        13.9955582770        9.8087501997       13.7948408974
  H        11.5746402236        8.7844623035        2.8599046304
  H        11.6288686561       10.5656793126        2.3216930704
  C        12.5923857001        9.1980002149        1.0817547705
  S        17.5120369165       18.2903028725        3.6984554333
  N        17.9711040327       17.8260491931        2.2356080995
  C        18.3352015013       15.6464977925        0.9981972874
  H        18.4747273691       13.5198633317        0.3080475205
  H        13.5987510483       14.8363222239       11.3951438122
  H        12.9182697126       13.6539244594       12.5065424459
  C        12.3689362270       12.9856584514       10.6201132718
  H        16.0293920457       14.5598948080       11.8668227583
  H        15.1485676232       14.2307136514       13.2968284737
  C        16.8999881905       12.8974133296       12.9846085192
  H        13.6425242013       11.8781635289       14.4733193365
  C        13.6861075724        9.0379634304       15.0647256224
  H        11.8132649443        8.8440350126        0.5265296421
  H        13.3667050094        8.3606337981        1.2089504056
  C        13.3692872095       10.2663201875        0.3237236290
  C        18.4399737942       16.2864169498       -0.2175584570
  H        12.6842937785       12.9192788725        9.5917805147
  H        12.1889492425       11.9166474796       10.8601655943
  C        10.9543193498       13.6400288215       10.5480340891
  H        17.2770887266       12.4281475723       12.0608170345
  H        16.6025855972       12.1320656392       13.6887405437
  C        17.9484028274       13.7659991493       13.6717371073
  C        13.5884652958        7.7030568340       15.2229617185
  C        13.3695642891        9.8367620507       16.3378826927
  H        13.5703764198       11.0958281370        1.0146775012
  H        14.2894276958        9.9253494261       -0.0424563007
  C        12.4940756352       10.8330914057       -0.8106672120
  H        18.0792901646       17.3263851452       -0.1867516875
  C        18.8032019811       15.8989972392       -1.4267154400
  H        11.0000662269       14.5910402583        9.9720987687
  H        10.5668386906       13.8507518406       11.5796348207
  C        10.0251621971       12.7985839325        9.7047340705
  H        18.0520442214       14.6412806329       13.0352510600
  H        17.5734068217       14.1646664759       14.6305537608
  C        19.2795395972       13.0763719395       13.8951183689
  N        13.9875742971        6.7361257512       14.2485675499
  C        13.2485673329        7.0699205923       16.4274158339
  C        12.9896433102        9.2443683853       17.4905983590
  H        13.4557899900       10.8735315366       16.2171412066
  H        12.8664147528       11.7920823051       -1.1791963753
  H        11.4897884908       10.9782690369       -0.5314136303
  H        12.3732752263       10.1924598479       -1.6164348214
  S        19.0920690412       14.3079659135       -2.0229044212
  C        18.8870753606       16.9570149469       -2.4840654063
  H        10.7082717698       12.4735033602        8.9005928638
  H         9.6835891915       11.9438853674       10.3330528495
  C         8.9303005425       13.6728029324        9.1155460259
  H        19.3782085005       12.3079107837       13.1503015121
  H        19.3125198720       12.6823117934       14.9589717289
  C        20.6044839454       13.9101210404       13.7529133824
  S        14.0776951768        5.3035600931       14.9421597397
  N        13.3615787922        5.6869814076       16.3692738877
  C        12.9981078766        7.7922906027       17.5947764640
  H        12.8021526559        9.8537448282       18.3341651432
  C        19.4582775572       15.0655718288       -3.5616108297
  N        19.2765729121       16.4019080240       -3.6152009044
  O        18.5627147379       18.0995381561       -2.3216535145
  H         8.6717080688       14.3980909319        9.9283004509
  H         9.2781693464       14.2223365056        8.2546107865
  C         7.7663931036       12.8721722446        8.6868419750
  H        21.5168148954       13.4384349318       13.9916007330
  H        20.8291945345       14.2417535214       12.6971880229
  C        20.6005871631       15.1771348405       14.6995674997
  C        12.6769974943        7.0790121040       18.8346183782
  S        19.9409860652       14.2187896082       -5.0357578369
  C        19.2935946999       17.1802463435       -4.8230963625
  H         7.8028318963       12.5565083688        7.5907231346
  H         7.5766978653       12.0882312569        9.4120795822
  C         6.5036636492       13.8112978760        8.6944541563
  H        20.6011183995       14.7831780512       15.6947267561
  H        19.6708730421       15.7138154322       14.5605321389
  C        21.8355610256       16.1084871245       14.5459945631
  H        12.9457427381        6.0442164036       18.8534327017
  C        12.1781850533        7.4100685739       20.0981431122
  H        20.0110671181       16.6518550682       -5.4708640814
  H        19.5526486282       18.2350671662       -4.7698149647
  C        17.9954086113       17.0818528709       -5.5749832188
  H         5.9038620164       13.6772204723        7.8156952954
  H         6.6663687286       14.8074611726        8.6537833488
  C         5.6783686663       13.6527533998       10.0008940348
  H        22.1350284250       16.6017837213       15.4687238657
  H        22.6439433540       15.4170742408       14.2804247318
  C        21.7970620737       17.1640355548       13.4245358067
  S        11.6309255338        8.9188656064       20.5850983982
  C        12.0932919884        6.3573360412       21.1077664065
  H        17.7451442208       16.0965375891       -5.8371220448
  H        18.2032151047       17.7341632379       -6.4307516036
  H        17.1830629170       17.4625453593       -4.9434776015
  H         5.2644630833       12.5979058524       10.0409556066
  H         6.3214405145       13.7909956848       10.8301470128
  H         4.9313947743       14.4930485403        9.9290910326
  H        20.8271793364       17.6691719644       13.3870124890
  H        22.5439040419       17.9615768754       13.6580522824
  H        22.0238605724       16.6509139471       12.5482876468
  C        11.2327791329        8.2235894321       22.0639107954
  N        11.4921642926        6.8711899447       22.1759029335
  O        12.4306847998        5.1656257425       20.9159553493
  S        10.7372187112        9.0798707753       23.5661240566
  C        11.5240222872        6.0890540270       23.3780857738
  H        11.1781874885        5.1203137731       22.9688038635
  H        10.8441368688        6.3868882307       24.1511723532
  C        12.9300164806        6.1332991292       24.0421205934
  H        12.7280726726        5.6019815031       24.9899482459
  H        13.3763483156        7.0252248236       24.4289789173
  H        13.6827338145        5.6965462342       23.4288720614
