352
 i =    41900, time =    41900.000, E =        24.9022242552
  H        12.1923824376        7.3338281634       31.6501860866
  C        11.6890727986        6.3965407758       31.7969932421
  H        12.3236938577        5.6132201461       31.4930369096
  C        10.4173376499        6.4361145611       30.9377008771
  C        11.4075488436        6.1691939652       33.2600211867
  C        10.7432856151        6.7907157572       29.5036447658
  H         9.9861041054        5.4665404711       30.9468780408
  H         9.6524707746        7.0580945477       31.4127124720
  H        11.1139627054        5.1593658251       33.5330064691
  H        12.1963961106        6.4172261757       33.9818704417
  H        10.5796855096        6.7704106145       33.6411715025
  C        10.3052062304        5.5868849036       28.5941037443
  H        11.8106757178        6.9805360301       29.2651511088
  H        10.1699942519        7.6995902865       29.1571401544
  C        10.7227917385        5.8582780844       27.1944343283
  H        10.7050546357        4.7297133543       28.9421747134
  H         9.1650499793        5.3631552221       28.7560705245
  C         9.7873551644        5.2670049535       26.1728414363
  H        11.7585726892        5.5123240012       26.9982577522
  H        10.8007084775        6.9188811889       27.1913147169
  C         8.5561967954        6.1570944092       25.8959556796
  H        10.3949103606        5.0064659154       25.3379566574
  H         9.4897611822        4.2860695464       26.5836469246
  C         7.4352815398        5.4429721159       25.1673327161
  H         8.2373413230        6.5347306800       26.8000820658
  H         8.9303989321        7.0392820461       25.3297153105
  C         7.0240563619        4.0937543124       25.8007666393
  C         7.8971088268        4.7029824460       23.9601567625
  C         6.3036291228        6.4511061418       24.9518781038
  C         7.4197186330        3.0201115687       25.0779510450
  C         6.3940157039        3.7547844867       27.0195097627
  C         7.9992660143        3.3575702016       23.8919733554
  C         8.3799520431        5.4155956590       22.8035301841
  H         6.6212310519        7.2793308181       24.3351278903
  H         6.0361887209        6.9001272690       25.8804757320
  C         5.0407914273        5.7916024411       24.4875921213
  S         7.2073284957        1.5450646541       25.9604953763
  C         6.3476114408        2.4467248254       27.2218785109
  H         6.1102498908        4.5323475032       27.7107315200
  C         8.4682441094        2.7683144725       22.7648892695
  H         8.3169893471        6.4705775751       22.9319930477
  C         8.7936459609        4.8287695573       21.6697230246
  H         5.3726977745        5.4947400434       23.4673871388
  H         4.8316747668        4.9313634745       25.1276082155
  C         3.7016877032        6.4769802057       24.4300156956
  C         5.9199961684        1.7460385183       28.4339467618
  C         8.7993788244        3.5140494606       21.5681985508
  H         8.5015896080        1.6744420411       22.6734218994
  C         9.1908162945        5.1825852850       20.3717528990
  H         3.0954251731        6.0437922990       23.6197132890
  H         3.8483782958        7.5142473459       24.1708183850
  C         2.9252366129        6.7878346416       25.7765858383
  C         5.7668183035        0.3114906101       28.6017397497
  C         5.4902226180        2.6113066174       29.5436610482
  C         9.0437584602        2.7761923948       20.3104914622
  C         9.2324255033        4.0961377963       19.5461938865
  S         9.4837872379        6.6783519101       19.5402059890
  H         2.1237218576        7.5119167310       25.5067503968
  H         3.7134855655        7.2390240629       26.4906140743
  C         2.3274484320        5.4665207165       26.3394964858
  N         6.0019320959       -0.6817507841       27.6023508212
  C         5.4954185430       -0.2484543504       29.8104284321
  C         5.0613830457        2.0259989324       30.7471516784
  H         5.6177004741        3.6988147452       29.5689625661
  C         7.8626020661        1.9617499525       19.8588279807
  C        10.2874659022        1.9202585802       20.4008616776
  C         9.5296470624        4.4720037829       18.1923899315
  C         9.7562719484        5.8585511055       18.0288348806
  H         1.7863855347        5.0598145175       25.5977220905
  H         3.1733598514        4.7489058250       26.5961305126
  C         1.5657862554        5.6386938881       27.6535647575
  S         5.7244382022       -2.1467267197       28.2443916965
  N         5.5277833459       -1.6644012466       29.8107972167
  C         5.1892642542        0.5280548888       30.9538455233
  H         4.8530389564        2.5570714041       31.6347955343
  H         7.6698652713        1.2171065130       20.6393811416
  H         8.1447988729        1.4840654924       18.9665498640
  C         6.6723804814        2.8554868595       19.5159548200
  H        10.3421900775        1.2991750232       19.5139717843
  H        10.3180869007        1.2914719024       21.2809935202
  C        11.5577649483        2.7630677330       20.3004041915
  H         9.6634262453        3.7124180142       17.4433523514
  C        10.0409326319        6.5694899581       16.7519077682
  H         0.7472881756        4.8958613647       27.6907253229
  H         1.0343950395        6.5854884428       27.5807787771
  C         2.4599058823        5.5775999504       28.9002303046
  C         4.9641399707       -0.1534896688       32.1463524529
  H         6.8756831952        3.5314949431       18.7611425350
  H         6.4564776112        3.4340681706       20.3651562073
  C         5.4238580486        1.9729049987       19.1231147466
  H        11.4943845324        3.6127968716       20.9000760931
  H        11.6082635367        3.0573719962       19.2923807240
  C        12.8060317847        1.9188668104       20.5352270941
  C        10.1433387333        7.9494031182       16.5416041131
  C        10.3517434915        5.7901073623       15.5100466156
  H         3.0338648563        4.6125333755       28.8361409719
  H         3.2192003540        6.4129995203       28.8187589905
  C         1.7189192699        5.6667698371       30.2323851721
  H         5.0998565593       -1.2106554643       32.1206603115
  C         4.7301076939        0.3162362725       33.4398501456
  H         4.8333497945        2.0208193651       20.0480749683
  H         5.8418069119        0.9904800857       18.8317492105
  C         4.7483813574        2.5745835590       17.9120170290
  H        12.6163969456        1.3150064106       21.4211730384
  H        12.9608120272        1.2309072161       19.7017779447
  C        14.0347177841        2.7868196002       20.6012694174
  N         9.9156320128        8.8475775637       17.5847938064
  C        10.3539328026        8.5105716989       15.3089119690
  C        10.5225149225        6.3508520149       14.2565103239
  H        10.3638696193        4.8004217256       15.6017646024
  H         1.0398227745        4.8834397851       30.3738126295
  H         2.4486768825        5.7639168796       31.0290166228
  H         1.2000054635        6.6272062648       30.2684301262
  S         4.7160526973        1.9655476530       34.0437383256
  C         4.5783166732       -0.7815048764       34.4253905493
  H         4.6186474997        3.5624025289       18.1745444460
  H         5.4037667093        2.6963598026       17.0643832324
  C         3.4866909700        1.8136699769       17.5272986488
  H        14.0451079772        3.5867409545       19.7522200180
  H        14.9175471275        2.1383915776       20.3669719222
  C        14.1517833981        3.3100998861       22.0049942082
  S         9.9927760949       10.3553239378       17.0066259932
  N        10.3649309560        9.9179734054       15.4331920882
  C        10.5708016802        7.8371045490       14.0881521895
  H        10.8435423742        5.7275829438       13.4679572366
  C         4.4688400155        1.1997377379       35.6319048139
  N         4.4051605252       -0.1524995026       35.6048491495
  O         4.7838268756       -2.0109741554       34.2209137140
  H         2.9749472329        2.4142907491       16.7867408680
  H         2.8437804094        1.7059432023       18.3449059612
  C         3.8158470537        0.3196624165       17.1663911575
  H        14.7883248006        4.1721951634       22.0395949126
  H        13.2144491101        3.6341632865       22.4629670659
  C        14.8019597220        2.3247962795       22.8072224031
  C        11.0230224666        8.5610174865       12.9493168840
  S         4.2060242306        2.0496026812       37.1230467991
  C         4.2169387651       -1.0122175330       36.7981713714
  H         3.4325554335        0.2100046622       16.1241215099
  H         4.9066275344        0.1036625487       17.1543106930
  C         3.0617237967       -0.7095859585       18.0561064469
  H        14.6985672939        1.4306972589       22.3203770899
  H        14.1816993414        2.3184515366       23.6807264889
  C        16.2881630659        2.5766758715       23.1721092877
  H        10.7157858206        9.5532798726       12.8314215136
  C        11.5683426142        8.1493781209       11.7762389161
  H         3.5001358312       -0.5882730113       37.5082313874
  H         3.8297191347       -1.9324052879       36.4444057159
  C         5.6175210258       -1.1726141820       37.4217317954
  H         2.9229229463       -0.2790962660       19.0506320796
  H         3.6042339603       -1.6665669011       18.1958048856
  C         1.6334706507       -0.9918852414       17.5968690502
  H        16.4533210669        3.5816123153       23.5629881590
  H        16.6553474182        1.8043741212       23.9174733628
  C        17.1042547290        2.4507251927       21.9007914987
  S        12.2788013023        6.5751492810       11.4650071920
  C        11.6237222989        9.1753071962       10.7148203374
  H         5.7659680945       -2.2063206057       37.7088842029
  H         6.4158010594       -0.8020119774       36.7458194423
  H         5.7066149909       -0.5787703086       38.3121988132
  H         1.0649464665       -1.5943483529       18.2761155414
  H         1.6329008435       -1.3981973705       16.6450668873
  H         1.2395195214        0.0382611385       17.5297158337
  H        18.1797365804        2.6306563463       22.0567696479
  H        16.9188452684        3.2069579143       21.1370672902
  H        16.8786078405        1.5068908306       21.4406677511
  C        12.3711521019        7.1678728988        9.8231711180
  N        12.1605357905        8.5515777446        9.6863775836
  O        11.1593242937       10.2900384432       10.7207731452
  S        13.2588105137        6.4309186481        8.4958152100
  C        12.3837544659        9.3552811481        8.4603472103
  H        12.7566055484       10.3116837897        8.6307417456
  H        13.1018492328        8.9078348859        7.7528252682
  C        11.0822677504        9.4807413648        7.6837581219
  H        11.2106368429        9.5394497353        6.6473144879
  H        10.3837159104        8.7005067730        8.0506950146
  H        10.5868952412       10.4171272296        8.0498192507
  H        21.2612124849       10.7152155351        3.0431354225
  C        22.2193809983       10.2005440505        3.0808888014
  H        21.8230518682        9.1973929673        2.9679047834
  C        22.9284589222       10.3338381405        4.3811476777
  C        23.0618327722       10.5241730367        1.8564786374
  C        22.1339110867       10.6274342179        5.6695357789
  H        23.5900045451        9.4618756211        4.5780745294
  H        23.7702834141       11.1644855676        4.3532640299
  H        23.7621665001       11.3032953473        2.0092965232
  H        22.3904874348       10.9449765053        1.0532039039
  H        23.7275931388        9.6390717377        1.5665577204
  C        21.2236112750        9.4146379158        6.0713653892
  H        22.8278596123       10.9465171498        6.4661011772
  H        21.5272381596       11.4915485478        5.5368744414
  C        20.5676780609        9.6269078937        7.4672257013
  H        21.8829599539        8.4931894414        6.1995576607
  H        20.5721369548        9.0472411212        5.2597818475
  C        19.3192855599       10.5316510678        7.4746031172
  H        21.4903770158       10.1373516432        7.8726398391
  H        20.5153015601        8.6573217654        7.9769107967
  C        18.0619046699        9.7335833220        7.1334927138
  H        19.1013980021       11.0610523074        8.3932751671
  H        19.5340572645       11.2927713993        6.7139548976
  C        16.8361432965       10.5978121981        6.8379353861
  H        17.7880074944        9.0207213822        7.9075840265
  H        18.3547167723        9.1228218372        6.2578130481
  C        17.2119985404       11.8815253499        6.0264694708
  C        16.4550514948       11.4704417992        7.9601639850
  C        15.6768948458        9.8979761612        6.1351150870
  C        17.0572512974       13.0920206308        6.7449488405
  C        17.6411159997       12.1610873950        4.7552305268
  C        16.5288775742       12.8178800764        7.9883191430
  C        15.9004677054       10.8632597204        9.0320328223
  H        16.0970431389        9.3277190572        5.3150124583
  H        15.3355044951        9.2704205110        6.9059337475
  C        14.4609714410       10.8820917368        5.7533305881
  S        17.2508903797       14.5188853125        5.8349790883
  C        17.8061711982       13.5356608671        4.5114040010
  H        17.8065199855       11.2390448414        4.1335686194
  C        15.9899841534       13.5575837478        9.0140522290
  H        15.8530549080        9.8038250747        9.0285609967
  C        15.5256745628       11.5487890240       10.1778416726
  H        14.8552870565       11.7372146899        5.1955733728
  H        14.1251970086       11.2829358303        6.7237450864
  C        13.3793603967       10.2091949228        4.8906210010
  C        18.0998147162       14.1525599408        3.2020348362
  C        15.5599223527       12.8977180387       10.2254407266
  H        16.1408095094       14.6363859936        9.0371443692
  C        15.0649191969       11.1809155590       11.3861973128
  H        12.5118499448       10.8627575651        4.9647897861
  H        12.9440236785        9.2326349529        5.2603682229
  C        13.7545266666       10.2819075827        3.3748443541
  C        18.0438428891       15.5428841266        2.8177028910
  C        18.5512870037       13.2244169349        2.0617642076
  C        15.2680791503       13.6042898641       11.4860687741
  C        14.9993237259       12.2650613234       12.1868619624
  S        14.6721593558        9.6203384790       12.2182453391
  H        14.5530593313        9.5331915858        3.2338585564
  H        14.2229198122       11.2463456429        3.0982296724
  C        12.6436619712        9.9241098803        2.3958189702
  N        17.6648497147       16.5747788873        3.7178726144
  C        18.3308458347       15.9678255759        1.5745595059
  C        18.8835777142       13.7019062060        0.8206590914
  H        18.5831018596       12.1688658434        2.3261695412
  C        13.9973102703       14.5108847241       11.2709892160
  C        16.5227958428       14.3430058538       12.0752936223
  C        14.6614407989       11.8668598345       13.4806006742
  C        14.4818975837       10.5547182139       13.6651081750
  H        12.0314508967        9.1320617335        2.7449240553
  H        12.0387840009       10.8333914504        2.4098370187
  C        13.2168457935        9.5944121953        1.0237776513
  S        17.5851203069       18.0119306859        2.8792707090
  N        18.1279225612       17.3852831171        1.4974456241
  C        18.7257099643       15.1341595628        0.4820575122
  H        19.0216696932       13.0025153918        0.0137760236
  H        14.2933272642       15.2099329705       10.5415917364
  H        13.8132908741       15.0133773265       12.2007897386
  C        12.7059268971       13.7191205850       10.9509375929
  H        17.0027278814       14.9168302380       11.2545164488
  H        16.1656059056       15.1578874788       12.7181520659
  C        17.4630378691       13.4871888607       12.8790641383
  H        14.5457458303       12.5965076082       14.2125585416
  C        14.1552506523        9.9489653254       14.9663616791
  H        13.3567990175        8.5153765828        0.7620210330
  H        14.1496487776       10.1230975345        0.9060015748
  C        12.1366220150       10.0868415707       -0.0501617197
  C        19.0394995626       15.7172476555       -0.7697918420
  H        12.8391415571       13.1570702847       10.0325285909
  H        12.5940244967       12.9784158699       11.6845799821
  C        11.4512268531       14.5791162207       10.7563674191
  H        17.6450307138       12.5340641351       12.4073747847
  H        16.9320337142       13.3552462973       13.8326013278
  C        18.8329237850       14.1687860538       13.2058740981
  C        14.0685158639        8.5220999263       15.1695264288
  C        13.9948014806       10.6922545828       16.2339150462
  H        11.4227333909        9.3970704046       -0.2960531594
  H        11.6307694529       10.9512510750        0.4033227959
  C        12.8055957088       10.5460174107       -1.3817545222
  H        19.0397983658       16.8259685107       -0.6932266556
  C        19.3191918823       15.2485760488       -2.0401115615
  H        11.6206307463       15.1242027156        9.8359340037
  H        11.3861285818       15.3702397271       11.5906458931
  C        10.1369175294       13.8677863910       10.7496188010
  H        19.4635617932       13.9446586085       12.3416354409
  H        18.7118870281       15.2558644743       13.1581163872
  C        19.3847005057       13.6268531358       14.5531149670
  N        14.3349517905        7.4973011517       14.2154681180
  C        13.7489306723        7.9263636994       16.3911367846
  C        13.6152584544       10.1005904471       17.4195423298
  H        14.0337774148       11.7669081733       16.0796494194
  H        13.7066018340       11.0426047562       -1.0655852374
  H        12.1098005640       11.2448598975       -1.8321209749
  H        13.1208281694        9.7782113856       -2.0048316750
  S        19.7839811988       13.7048185890       -2.5135902685
  C        19.3743389221       16.3078386985       -3.1262359748
  H        10.2803315257       12.8108448646       10.4463738425
  H         9.6657950042       13.7427978006       11.7515492724
  C         9.0980694129       14.5690662416        9.8133479712
  H        19.3145830204       12.5576686034       14.5527777774
  H        18.8713776863       13.8364919248       15.4877249434
  C        20.8419676669       13.9611908049       14.7286087433
  S        14.3119710449        6.0435046455       14.9199995305
  N        13.7899772068        6.5294636063       16.3845304945
  C        13.5003857232        8.6621638326       17.5709777942
  H        13.4069133717       10.7123571694       18.3579103824
  C        19.9086135084       14.3369574939       -4.1488912374
  N        19.7093473933       15.6606905784       -4.2542429094
  O        19.1186665254       17.4763442323       -2.9418745307
  H         8.5100718983       15.1996077847       10.5153275831
  H         9.5436282332       15.3692990208        9.1242597981
  C         8.2944286373       13.5714251978        8.9719946730
  H        21.2413851838       13.4095567335       15.5825324909
  H        21.3882460695       13.5836983873       13.8126608378
  C        21.0466603730       15.4793683218       14.8691503440
  C        13.0992990679        7.9626855378       18.7064364832
  S        20.5580356050       13.4470039570       -5.4660446113
  C        19.8431863964       16.3936584540       -5.5523354662
  H         8.6244907467       13.7493522302        7.9271955029
  H         8.5868058455       12.5725903726        9.2195137067
  C         6.7649585740       13.7723409712        9.0377778750
  H        21.6777545808       15.6967905264       15.7664223530
  H        20.1093887619       15.9445796765       15.0503500940
  C        21.8822809376       16.1702436461       13.7641317565
  H        13.3641566806        6.8699792513       18.6533872642
  C        12.5724169586        8.3476856795       19.9680723919
  H        20.0082262173       15.7013118420       -6.4891330864
  H        20.7095135909       17.1305420811       -5.6150021312
  C        18.5946501037       17.1699089997       -5.8058598352
  H         6.1587207658       13.2518064784        8.3398945432
  H         6.6510375431       14.8931967105        8.8265639579
  C         6.1891451958       13.5355539477       10.4218563660
  H        22.9692890288       16.1900133589       13.8495090823
  H        21.7643282050       15.7699162935       12.7788126388
  C        21.4721566471       17.7068548251       13.8153731998
  S        12.0711709659        9.9082477525       20.3951746214
  C        12.4426278102        7.2660110679       20.9977750656
  H        18.3213301179       17.3048748523       -6.8378177639
  H        18.5348570902       18.1797887312       -5.3981679376
  H        17.7444797856       16.5978666398       -5.4839707721
  H         6.3005730531       14.4139972863       10.9997092164
  H         5.2127684632       13.1011332523       10.2258104101
  H         6.8128928648       12.8255864602       10.9130617584
  H        21.1971366886       17.8212573216       12.8109202804
  H        20.5799327220       17.9516523602       14.3847918266
  H        22.3204139768       18.3936402103       13.9695424243
  C        11.6564199523        9.1292305511       21.9299121664
  N        11.8048688564        7.7738897937       22.0422671313
  O        12.8361637345        6.1044229007       20.9044691497
  S        11.1215779891       10.0356832278       23.4360771279
  C        11.5722125827        7.0094509876       23.2679455662
  H        11.5737047608        5.8986769033       23.0561197766
  H        10.6278124234        7.3753538818       23.6196349694
  C        12.7323907361        7.1390728164       24.1924786216
  H        12.7031606738        8.1540717280       24.6482496069
  H        13.6712091150        6.9326476476       23.6953097487
  H        12.7768255953        6.4221980650       25.0116656165
