352
 i =    35900, time =    35900.000, E =        24.8826860404
  H        11.5445042783        6.6094134735       32.4634323186
  C        11.2954886665        5.5631293417       32.3800844944
  H        12.1823326486        5.0092567651       32.1631314966
  C        10.3204821858        5.4972018422       31.2168976050
  C        10.7917254813        5.0955790515       33.7268157228
  C        11.0516050757        5.3304260324       29.8753975497
  H         9.6761302134        4.6261260201       31.3541062178
  H         9.7136362385        6.3586503307       31.2190455927
  H         9.7202400641        5.3022787332       33.8478466085
  H        10.9624756849        4.0312758753       33.6890424958
  H        11.3222622470        5.6523186800       34.4855674068
  C        10.0845506627        5.4253706017       28.7675187314
  H        11.4866062138        4.3767591936       29.9411864431
  H        11.8084184017        6.0875509135       29.6890423551
  C        10.6676390767        5.4860883154       27.3466981073
  H         9.4863938628        4.4429898203       28.6909803212
  H         9.5610702276        6.3250893613       28.9971852874
  C         9.7607262202        4.8375848977       26.2980348134
  H        11.6594853826        4.9191905186       27.3951853173
  H        10.9703062231        6.4924428133       26.9150103330
  C         8.5689748287        5.7101359152       25.9717113089
  H        10.4347274238        4.5970582727       25.4617150520
  H         9.4694531931        3.8478631111       26.6809321319
  C         7.4520743569        4.9055782950       25.2994892443
  H         8.2180968777        6.1291589270       26.9366037835
  H         8.9210850047        6.4984335886       25.3095688796
  C         7.1076350772        3.5732285199       26.0179156539
  C         7.8579561355        4.1236367221       24.0479246307
  C         6.1707953959        5.8841682930       25.1789068071
  C         7.3142479828        2.4445634006       25.2736224962
  C         6.7714122450        3.2393502328       27.3060117771
  C         7.7933676507        2.7999611322       24.0169208909
  C         8.3067524947        4.8022496859       23.0202860140
  H         6.3969138918        6.5944951162       24.3580978508
  H         5.8854947588        6.3473177471       26.1158768153
  C         5.0114455939        5.1115784100       24.6692377246
  S         6.7319647130        0.9937566307       25.9654872459
  C         6.4804894237        1.9119528240       27.4614806969
  H         6.5535992759        3.9971795043       28.0503683799
  C         8.1515724544        2.1890694386       22.8064982178
  H         8.4112009916        5.8665676557       22.9572088148
  C         8.6865437649        4.2800558542       21.8308234036
  H         5.1857553291        4.8286017125       23.6208732137
  H         4.8344332616        4.2600439055       25.2803261807
  C         3.6591190144        5.9109392997       24.5585648444
  C         5.9927306112        1.2346439322       28.7167451161
  C         8.5914969048        2.8997520330       21.7040601559
  H         8.1097048496        1.1882473162       22.6609850186
  C         9.1545442447        4.6887565153       20.6049516251
  H         3.0374581490        5.3180234130       23.9328428172
  H         3.9386624745        6.8766450806       24.0772626171
  C         2.9762234870        6.1422459051       25.8904867625
  C         6.0082495779       -0.1535044963       28.9324804370
  C         5.5505036152        2.0659288948       29.8337931520
  C         9.0135119206        2.2683941708       20.4296291520
  C         9.3047328119        3.6434760681       19.7382560732
  S         9.3982676613        6.2262345277       19.9290043980
  H         2.2808421142        6.9586129372       25.8251267604
  H         3.6916112271        6.5211527216       26.5783091018
  C         2.1491937256        4.9708586950       26.3941996740
  N         6.2501708922       -1.1537175283       27.9952455594
  C         5.6247397609       -0.7089501478       30.1634414158
  C         5.1459009188        1.5135883781       31.0854510940
  H         5.3583533106        3.0859610683       29.7339594971
  C         7.9222318298        1.6010156934       19.6236361243
  C        10.2140729531        1.3026724008       20.7069827771
  C         9.6112261368        4.0508396950       18.4560444882
  C         9.6854711713        5.4504014793       18.4266464234
  H         1.5505762591        4.5139960142       25.6335151981
  H         2.8462999052        4.3166036069       26.9229565541
  C         1.1550248237        5.4514469306       27.4883427649
  S         6.1644081601       -2.6125835112       28.7279100872
  N         5.6214317631       -2.1030262321       30.1710330098
  C         5.2197863956        0.0650669959       31.3144487972
  H         4.7049156316        2.1493679381       31.8992068381
  H         7.5967109499        0.6522511287       20.1321199356
  H         8.1925685108        1.2801250678       18.6160371943
  C         6.7343867611        2.5280113244       19.2905038155
  H        10.5205331517        0.6912591401       19.8666828580
  H         9.8332373509        0.6038814898       21.4282149390
  C        11.4889710341        2.0789718076       21.2220370719
  H         9.6897135415        3.3531735047       17.6565754995
  C        10.0185681014        6.2686859577       17.2338067856
  H         0.3762269261        4.6886102052       27.5535100021
  H         0.6022787554        6.2618697372       27.0691463043
  C         1.6664130339        5.7612153702       28.9575377595
  C         4.9104892964       -0.5632344936       32.5009061928
  H         7.0209988087        3.2326827217       18.5982322876
  H         6.4010218986        3.0610009332       20.1797535946
  C         5.7242368963        1.6695349197       18.4873905349
  H        11.3292573798        2.2611549750       22.2910778456
  H        11.5913733658        3.0720780118       20.7601322937
  C        12.7854037529        1.1763227075       21.0372598751
  C        10.0538281075        7.6778640871       17.1734289529
  C        10.2304065738        5.5975871232       15.9206553516
  H         2.3700881791        6.6182706793       28.9116146111
  H         0.7686599103        6.0373636554       29.6072715635
  C         2.4108169866        4.6054232593       29.7093414612
  H         4.7240454402       -1.6265631618       32.3587848662
  C         4.4928444608       -0.1119931037       33.7357263871
  H         5.6198342538        0.7001900540       18.8448025186
  H         6.1180302076        1.6190413650       17.4626943886
  C         4.3315710299        2.2559723745       18.3199908126
  H        12.8306169742        0.2480462440       21.6876252389
  H        12.7051005757        0.9336429258       19.9446324933
  C        14.0599385086        2.1119082960       21.2656024379
  N         9.7477031106        8.4964617870       18.2117407598
  C        10.3524064200        8.4012913061       16.0514376620
  C        10.6308509979        6.2484532967       14.7598082603
  H         9.9589551629        4.5830469618       15.8775706820
  H         3.2038874761        5.0956537302       30.2597951489
  H         1.6750673578        4.1828933127       30.3621597822
  H         2.8731184946        3.8595641798       29.0877707045
  S         4.2015017765        1.5098625828       34.2493915464
  C         4.2997739805       -1.0969600130       34.8089437113
  H         4.2749243521        3.2228233927       18.8583583053
  H         4.2739593970        2.4389174728       17.2508087751
  C         3.1070433715        1.3831416823       18.6256975027
  H        13.9522961980        3.0294888138       20.7872014871
  H        14.9648707620        1.7767290575       20.7605132737
  C        14.3582109279        2.5496504426       22.7206440947
  S        10.0570647440       10.0464968475       17.8055863700
  N        10.4388833645        9.7705998335       16.2340312178
  C        10.6041684304        7.7440799626       14.8364045253
  H        10.5734880070        5.6833459382       13.8074802072
  C         3.8328695294        0.8327887438       35.8399584114
  N         3.9980873560       -0.4963562610       35.9929437822
  O         4.4653039192       -2.3232586107       34.6206756124
  H         2.2026674780        1.9450801085       18.4925436179
  H         3.1860563108        1.1896356915       19.6813001525
  C         3.0124002854       -0.0050560548       17.8805501077
  H        14.7539469999        3.5480552990       22.6470816985
  H        13.4252546178        2.6716181518       23.2285351891
  C        15.3218199831        1.6081908488       23.4109196362
  C        10.9047973836        8.5412622177       13.7174891877
  S         3.6520051041        1.7467775805       37.2758495744
  C         4.0235358152       -1.1660755110       37.2441813708
  H         2.6013786126        0.1348788115       16.8624217840
  H         4.0320370257       -0.3475944382       17.7918528422
  C         2.1857480849       -1.0627522222       18.4973457388
  H        15.5129490171        0.8158336592       22.6832196190
  H        14.7813714140        1.1479332595       24.2178241343
  C        16.6171156787        2.2058810500       23.8934647924
  H        10.6394079270        9.5965295514       13.8634703441
  C        11.5345955158        8.2706076496       12.4811988180
  H         3.3045331764       -0.8267038059       37.9214966306
  H         3.8283005638       -2.2150678600       37.1339069141
  C         5.3465355960       -0.9738807007       38.0033576657
  H         1.1686540150       -0.6452107679       18.5442767648
  H         2.4808156656       -1.2793649631       19.5382718509
  C         2.2832813921       -2.4577751547       17.7979446094
  H        16.3370859057        3.1769980727       24.3150323406
  H        16.9024121818        1.5232995990       24.6609638726
  C        17.7472848181        2.3228935569       22.9205581817
  S        12.1677528347        6.7840440580       11.8016892477
  C        11.6142015277        9.5032214290       11.5903996783
  H         5.3559746012       -1.7587513694       38.7553464592
  H         6.2082715859       -1.0756932107       37.3637378156
  H         5.4729825081       -0.0152532021       38.4564315654
  H         1.8142002646       -3.1877411259       18.5083247705
  H         3.3156937490       -2.6575527666       17.6099610566
  H         1.7402558831       -2.4802144105       16.8774916488
  H        18.4527062412        1.5058519122       23.1969375677
  H        18.3468641450        3.2122266450       23.0073694459
  H        17.3849661483        2.2453125159       21.9189866309
  C        12.5021663720        7.7757733228       10.3533018173
  N        12.2237526504        9.1427606185       10.4797833903
  O        11.3982472925       10.6751946841       11.9104834161
  S        13.5637329313        7.2815190860        9.0349160546
  C        12.3790120008       10.0668001297        9.4099886132
  H        12.4640206512       11.0792013452        9.8530307392
  H        13.3034153063       10.1445360404        8.9424232003
  C        11.1720712213       10.0566343388        8.4971020543
  H        11.0017077891        9.0548748050        8.0624975005
  H        10.2653627002       10.1864694053        9.0511246592
  H        11.2771079182       10.6913653413        7.6408053960
  H        21.3288529283       11.5930880166        3.1193707686
  C        21.7586526811       10.5557910555        3.2788430257
  H        20.8274856220       10.1020496767        3.4111989571
  C        22.6420407684       10.4400454887        4.5701094977
  C        22.5609980029       10.2047377400        2.0498437164
  C        21.9397886340       10.8568964733        5.8566249376
  H        22.9939102457        9.4525538625        4.6048354505
  H        23.4486997084       11.1874670990        4.4519449261
  H        21.8766213447        9.9296109902        1.1918259754
  H        23.2078719481        9.4496208417        2.2338196574
  H        23.1973292322       11.0181904833        1.7867874479
  C        21.3324418801        9.7061693956        6.6755704599
  H        22.7323143709       11.3239028886        6.4816537141
  H        21.1924067271       11.6053107354        5.7937098522
  C        20.7770119401       10.1204259909        8.0255832890
  H        22.0533675771        8.9136783656        6.8259605853
  H        20.5411932274        9.2496267233        6.1609432658
  C        19.4084431261       10.8424837895        7.8229821377
  H        21.5934280132       10.6409603661        8.5981389882
  H        20.5250465520        9.2426093725        8.6565248120
  C        18.1844780671        9.9713518560        7.4324203206
  H        19.2149618081       11.2725791884        8.7399553597
  H        19.6505686326       11.6142628018        7.1662163149
  C        16.9201438026       10.8812619162        7.1708637066
  H        18.0063810968        9.3761898764        8.3110048892
  H        18.4786296725        9.3841774758        6.5843131833
  C        17.2296819781       12.1780968815        6.4804990521
  C        16.4958927652       11.5940244791        8.4261070447
  C        15.7335198136       10.0486058350        6.5534407029
  C        16.9565645440       13.2754667114        7.2763151251
  C        17.6747508212       12.5753911900        5.1546842872
  C        16.5151974562       12.9779406012        8.5093935823
  C        15.9693130191       10.9846147338        9.5496470800
  H        16.2280456185        9.6172242328        5.6359586187
  H        15.5047071299        9.1858863768        7.1758039517
  C        14.4986569981       10.9403703069        6.1752016559
  S        17.2319117267       14.7638124333        6.4663967159
  C        17.7032095900       13.9708138059        5.0290511498
  H        17.9908803969       11.9119455955        4.3628849819
  C        16.1492292322       13.6127345458        9.6322809292
  H        15.8876394486        9.8818807424        9.5993105213
  C        15.6551471386       11.5987278513       10.6786158604
  H        14.8943825521       11.9194681434        5.8343827344
  H        13.9665004240       11.2027308010        7.0979253335
  C        13.6011505761       10.3566008250        5.1488461280
  C        17.9899967871       14.7380138170        3.8420493889
  C        15.7113989940       12.9574440749       10.7606104924
  H        16.2723511351       14.6885104717        9.7752038190
  C        15.1729857914       11.2214079795       11.8856216048
  H        12.6277353865       10.8350909716        5.3541175368
  H        13.5916353791        9.2602281625        5.2873043881
  C        14.0499893170       10.4691229544        3.6873467269
  C        17.9851160473       16.1091990955        3.6309477886
  C        18.6592879444       13.9705739048        2.7203201547
  C        15.3978351813       13.6453976672       12.0467469902
  C        15.0992727552       12.3237399303       12.7704845104
  S        15.0743108557        9.7144423220       12.6363889935
  H        14.9775827414       10.0116222147        3.4279976021
  H        14.3115227231       11.5051429255        3.4807856598
  C        12.9251267507       10.1477137384        2.6073404286
  N        17.6297509672       17.1103436323        4.5479963655
  C        18.3492044343       16.6917605650        2.3495102098
  C        18.9298388535       14.5205875109        1.4550531248
  H        18.6582089161       12.9305210511        2.7275746519
  C        14.0352991649       14.4327165377       11.9997232155
  C        16.5575348490       14.5149017633       12.6372057108
  C        14.6570887588       11.8360118255       14.0179518466
  C        14.6631096979       10.4574212159       14.1560360028
  H        12.4771826812        9.1595307281        2.8780886213
  H        12.0675141260       10.8861226073        2.6238771986
  C        13.5160503534        9.9407950286        1.2224004215
  S        17.7096306621       18.5768557992        3.8369200477
  N        18.2518385090       18.0733487351        2.3543604158
  C        18.7375700891       15.9775269543        1.1881505790
  H        19.3359248349       13.9356071819        0.6610901314
  H        14.1321419852       15.3995275061       11.5573169523
  H        13.7374035951       14.7517061819       12.9541645740
  C        12.8853469394       13.5580697931       11.4547076846
  H        16.6619949853       15.4178995558       12.1408964108
  H        16.2559479192       14.7548918871       13.6421375364
  C        17.7977233846       13.7423797599       12.6528233135
  H        14.4271046834       12.5886123005       14.7753117495
  C        14.2779029984        9.7077815883       15.4335446745
  H        14.0406648373        8.9500547138        1.2722191886
  H        14.2870946837       10.6863793648        1.0672185456
  C        12.5007441306        9.9510528640       -0.0020269534
  C        18.8894599891       16.7103001024       -0.0171400757
  H        13.1424779811       13.1282145933       10.4871270991
  H        12.6597605853       12.7778697789       12.1487954140
  C        11.6719409533       14.4057504895       11.1546164499
  H        18.0236442911       13.3726470440       11.5958386882
  H        17.6665762290       12.9469739774       13.3862997462
  C        19.0125003137       14.5655528043       13.0625419746
  C        14.1489321580        8.3092375982       15.5861136796
  C        13.9232999527       10.4737493703       16.6815275715
  H        12.5037821925        8.9139170779       -0.3334132634
  H        11.6087097137       10.3056849340        0.4076895205
  C        12.9500153782       10.7965954940       -1.1586727797
  H        18.9135975656       17.8100026297       -0.0280414000
  C        19.1510047047       16.2418753223       -1.2519272137
  H        11.9663120060       15.1005308364       10.3797103537
  H        11.2894611827       14.9112179637       12.0358258031
  C        10.5961086625       13.5740987750       10.5435640582
  H        19.3972239666       15.0668810964       12.1762545812
  H        18.6352708246       15.3899976056       13.6901183732
  C        20.0896398488       13.8168976531       13.9107302559
  N        14.2990272761        7.4600886875       14.5031740512
  C        13.7726817237        7.6689013452       16.7463824525
  C        13.4111524084        9.8252061899       17.8209156105
  H        13.7903558356       11.5390087116       16.5619749243
  H        12.0503016249       10.9212817073       -1.7626556850
  H        13.8428587756       10.3978470234       -1.7769375887
  H        13.4175789685       11.7134949982       -0.8150685952
  S        19.4746837195       14.5551804770       -1.7167601918
  C        19.1434354084       17.1221552544       -2.4660413715
  H        10.8608985595       13.1777638646        9.6133151249
  H        10.3168082963       12.8054799464       11.2316458751
  C         9.2971188461       14.2962252839       10.4097149759
  H        20.3274929785       13.0063244905       13.1440168769
  H        19.7436516951       13.4291305168       14.8637486781
  C        21.3106746257       14.6439984278       14.3262867880
  S        13.9430851987        5.9576331920       14.9981973827
  N        13.7042743981        6.2471095742       16.6057908282
  C        13.3830509978        8.3412822466       17.8918873073
  H        13.0589067789       10.4268547875       18.6206206873
  C        19.7537392252       15.1673240144       -3.4189055091
  N        19.5205881716       16.4956465327       -3.6051812854
  O        19.0831887772       18.3740577337       -2.4231214899
  H         8.9642675853       14.6161404448       11.3820757205
  H         9.4084075069       15.1691962795        9.7452054890
  C         8.1288102824       13.3354388889       10.0216328238
  H        22.0920316826       13.9496121661       14.4623978626
  H        21.4420074318       15.3467996797       13.4721033626
  C        21.1089880636       15.4488584351       15.6126083832
  C        13.0571854666        7.5646666199       19.0165122742
  S        20.2435078659       14.2454212636       -4.8528160468
  C        19.3705581132       17.1610677751       -4.8891094088
  H         8.4957101988       12.6519626625        9.2255015296
  H         7.8752382286       12.6944371966       10.8387168341
  C         6.8390510900       14.0276013377        9.4691039154
  H        21.5213489065       14.7662585869       16.3438749044
  H        20.0591603209       15.6925964930       15.7938876251
  C        21.8540131671       16.7842710400       15.6597445511
  H        13.3255524574        6.5254789200       18.8786876643
  C        12.5200081071        7.8592953541       20.2418200788
  H        20.2817687646       16.7631421342       -5.4615304022
  H        19.6276163102       18.2321927933       -4.8044096596
  C        18.0057616694       16.8998253637       -5.5295670154
  H         6.6234642352       13.5571611453        8.5112635385
  H         6.9867363857       15.0610228405        9.4467992720
  C         5.6854587864       13.8229095131       10.4312186454
  H        22.0027408047       17.0523919629       16.7158402936
  H        22.8213296803       16.6056124685       15.1273465828
  C        21.0800650294       17.8802646822       14.9859780517
  S        11.8332825659        9.3297608405       20.7238142091
  C        12.3802943561        6.8038444179       21.2649053320
  H        17.6036728068       15.9162828330       -5.2651164422
  H        18.0806516954       16.9921783026       -6.6016953158
  H        17.2453416014       17.6573892716       -5.3965344002
  H         5.4460513764       12.7971720817       10.4200158933
  H         6.0196142916       14.1207251209       11.3912628593
  H         4.7012496169       14.3939050390       10.1641748622
  H        20.3821258386       18.3732659708       15.6531624454
  H        21.7230809687       18.6292205719       14.5776606053
  H        20.5309604087       17.4202388767       14.1474274689
  C        11.5215539500        8.5712446869       22.2731601991
  N        11.8480233279        7.2787094441       22.3902046585
  O        12.7438769337        5.6642274519       21.0928830925
  S        11.0154227884        9.4437397206       23.6527816048
  C        11.7970388429        6.4505884420       23.5726632045
  H        11.4603246451        5.5063459900       23.3510648448
  H        10.9727462446        6.8729377450       24.2220860764
  C        13.1375483062        6.3032635433       24.3551315847
  H        13.8359665202        5.8427948280       23.6798146903
  H        12.9226061340        5.6232757657       25.1768907388
  H        13.5709485015        7.1785189360       24.7277560357
