352
 i =    39400, time =    39400.000, E =        24.8347937086
  H        12.2177176788        6.4803707991       32.4623454270
  C        11.6813902806        5.5029271988       32.3816460774
  H        12.2923316325        4.6814083020       32.1250379077
  C        10.6058055798        5.5796793379       31.3017000149
  C        10.9217529289        5.3414247942       33.6327106133
  C        11.1501450492        6.0285629705       29.8630325508
  H        10.0418173101        4.6950740509       31.2438557205
  H         9.8909924678        6.2874264218       31.5330956900
  H        11.4823376534        5.9047882077       34.4513044947
  H         9.9232253917        5.8556847577       33.6230416146
  H        10.6768491392        4.3491492350       34.0142100848
  C        10.5399574272        5.0875610701       28.7541230963
  H        12.2179036936        6.0054567852       29.8443458896
  H        10.7693996226        7.0259610667       29.6637358573
  C        10.9026604945        5.5314262083       27.3332167198
  H        10.8466288795        4.0696044900       28.9537575306
  H         9.4746920062        4.9209663595       28.8454315513
  C        10.0303216383        4.9546945844       26.2947788685
  H        11.9790490745        5.2519338260       27.1622277644
  H        10.8276929950        6.6177291225       27.2103118999
  C         8.7792641266        5.7554817028       26.0672141402
  H        10.5626980675        4.7283732554       25.4006847261
  H         9.8147239326        3.9898054072       26.7005156853
  C         7.6270166384        5.0062179446       25.3426809506
  H         8.4094497837        5.9796531571       26.9496403181
  H         9.0908734765        6.7108207794       25.4817263031
  C         7.2545369488        3.6940640912       26.0674390258
  C         7.9894244826        4.2600497894       24.1145891426
  C         6.3145274734        5.8219967859       25.3075288149
  C         7.3403787817        2.6154802555       25.2435539710
  C         6.7730364247        3.3075670843       27.3764137792
  C         7.7021648154        2.9425196004       23.9674106445
  C         8.5008173197        4.8845504149       22.9510822678
  H         6.6878015396        6.5297447762       24.5128575117
  H         6.2717600423        6.2931355673       26.2790900181
  C         5.0304896757        5.1361168148       24.7831707836
  S         6.9275392634        1.1158689840       25.9893996723
  C         6.5495006051        1.9527413526       27.4542092517
  H         6.5647176245        3.9997663191       28.1137263377
  C         8.0459617907        2.3050785358       22.8102168376
  H         8.6887591445        5.8915047756       22.9211876627
  C         8.8350193554        4.2078776391       21.7677266503
  H         5.3286334383        4.7406353864       23.8322563521
  H         4.9644064255        4.3089659171       25.4289847802
  C         3.7144946099        5.8873757376       24.7040226899
  C         6.0488309436        1.2550339573       28.7041957231
  C         8.6251805513        2.9190904180       21.6438171294
  H         7.9861982428        1.2433981310       22.7693230236
  C         9.2649727160        4.5609446646       20.5298085899
  H         3.0462574896        5.3328688743       24.0003785727
  H         3.8468044817        6.7714813456       24.2211994980
  C         3.0031778929        6.1426944520       26.0376010338
  C         5.9933161089       -0.1720260353       28.8762561243
  C         5.5962840627        2.0512158201       29.8382032685
  C         8.9950110735        2.1349297019       20.4140549724
  C         9.2771320680        3.5059614997       19.6851536712
  S         9.4713609417        6.0985741638       19.7462260927
  H         2.2127503437        6.8358433642       25.7801183093
  H         3.6169001683        6.6850783533       26.7493366868
  C         2.3657683468        4.8877511020       26.5983199931
  N         6.2436319076       -1.1397603490       27.9069088962
  C         5.7342264017       -0.7603823994       30.1170216889
  C         5.3680111670        1.4492806949       31.0789192175
  H         5.5849415565        3.1356703848       29.7549308586
  C         7.8170751640        1.3629537585       19.8413357748
  C        10.2839252513        1.3069098147       20.5993951244
  C         9.6837710719        3.9135088643       18.3902483866
  C         9.8305078759        5.2264387773       18.3318514976
  H         1.5687170567        4.4528595429       25.9937011365
  H         3.1977351750        4.1384713997       26.8389449700
  C         1.6427845010        5.1374011276       27.9789299045
  S         6.1622530809       -2.6375434505       28.5754022425
  N         5.8212307664       -2.1654105636       30.0694741181
  C         5.3969090873       -0.0146719594       31.3155796511
  H         5.0912967960        1.9470122349       31.9781024873
  H         7.3882052077        0.8321893870       20.6646186361
  H         8.2344717470        0.7300716931       19.1396296227
  C         6.6339913052        2.1682636399       19.2977825250
  H        10.4606038562        1.0332300449       19.5527260147
  H        10.0708791768        0.4071996941       21.1552059882
  C        11.5287481558        2.0862037442       21.1034005041
  H         9.7007749616        3.1393005322       17.6409385062
  C        10.1108964733        5.9753323869       17.0653333534
  H         1.1393242468        4.2478531053       28.1613024563
  H         0.9297560226        5.9676391554       27.9179240826
  C         2.6114957178        5.3378010354       29.1472410203
  C         5.1136695853       -0.7350696947       32.5638152321
  H         6.8589075600        2.7776316840       18.4504666038
  H         6.3092285720        2.7687156553       20.1876379558
  C         5.5021179244        1.2069981411       18.9624195573
  H        11.3015018628        2.3957248070       22.1278862797
  H        11.7825084926        2.9667063423       20.5113356818
  C        12.6871929051        1.1047457677       21.3421890326
  C        10.1825444545        7.3978015024       17.0068726756
  C        10.3937612520        5.1930758377       15.8128129676
  H         3.3717993173        4.5520322062       29.2450793006
  H         3.2717989020        6.2039547001       28.9018874517
  C         1.9686243290        5.7201929106       30.4961690513
  H         5.4378468287       -1.7775947435       32.4311639311
  C         4.7497598666       -0.2892852712       33.8032498881
  H         5.1499986870        0.8597000621       19.9330579621
  H         5.8672387016        0.3352228167       18.4525756839
  C         4.3789073963        1.8143733589       18.0929048944
  H        12.5745400415        0.6042766679       22.2954900051
  H        12.5078109842        0.3175835097       20.5587973965
  C        13.9696839364        1.8148858284       21.0992056885
  N         9.8975145947        8.3621349396       18.0321939131
  C        10.3103324648        8.1265119466       15.8476574703
  C        10.5997411663        5.9362579353       14.6268287189
  H        10.2875092346        4.1143476359       15.7306489036
  H         1.3481351439        6.5919765769       30.3359737945
  H         1.4438824508        4.8854245555       30.9991023206
  H         2.7412082954        5.9815599755       31.1955996453
  S         4.3952388319        1.3197516810       34.3406471115
  C         4.7512252489       -1.2617160903       34.8496451026
  H         4.4502022243        2.8808092738       17.9838266989
  H         4.5175390162        1.3206770417       17.1031333849
  C         2.9256475889        1.4549702554       18.3735780235
  H        13.8144566494        2.4899579853       20.2668919341
  H        14.8860980712        1.3115216561       20.7423364918
  C        14.4355595150        2.6374291841       22.3195861550
  S         9.9649847798        9.8664653006       17.5189996592
  N        10.2038247181        9.4696469161       15.9591626450
  C        10.6291609455        7.4463257373       14.6308920041
  H        10.7193837716        5.4236772402       13.6707773081
  C         4.3718980059        0.6260648397       35.9220899454
  N         4.5681910446       -0.6818725790       36.0177228382
  O         5.0651986673       -2.4408193556       34.7204800029
  H         2.2821217231        1.8935064780       17.6562755155
  H         2.6564916765        1.9420832114       19.3283392899
  C         2.6008305533       -0.0015596328       18.5795477585
  H        15.0638988770        3.4643071435       21.8891018404
  H        13.6374397224        3.0840004392       22.8361268102
  C        15.3562920303        1.8035548480       23.3017739233
  C        10.9267707937        8.2375681130       13.4851200820
  S         4.0692301896        1.6458959518       37.3622421142
  C         4.7478948200       -1.4114162140       37.2769901103
  H         3.4199938274       -0.4253381010       19.1443428374
  H         1.6750319058       -0.0568074603       19.0267871266
  C         2.5414836197       -0.7746667073       17.2435768426
  H        15.6188935573        0.8173396756       22.8592192670
  H        14.7300720023        1.4899119637       24.1635062753
  C        16.5885315700        2.5188770093       23.7412626557
  H        10.7674518945        9.2993083475       13.6074796066
  C        11.4489151363        8.0114663803       12.2223512779
  H         4.0872516199       -0.9028109487       38.0520531121
  H         4.4059183774       -2.4106163645       37.1094857146
  C         6.2332153471       -1.3319134478       37.6781520921
  H         3.5683926593       -0.8657297448       17.0206540800
  H         2.1974808141       -0.2967513292       16.3881616844
  C         2.0002202912       -2.1821734762       17.4058571278
  H        16.3417809848        3.5950845776       23.9268319845
  H        16.8901531164        2.0795918518       24.6804264912
  C        17.7606345575        2.4066206254       22.8467050588
  S        11.9675287652        6.5121070931       11.6078206331
  C        11.6104795580        9.1447260491       11.2445108825
  H         6.6754578995       -2.2844831259       38.1215464136
  H         6.7368703491       -1.2242513246       36.7445483718
  H         6.3967610019       -0.4990080627       38.3061748276
  H         1.9269411596       -2.6060574008       16.3966962371
  H         1.0781752369       -2.2356710371       18.0180420513
  H         2.7710820741       -2.8534413496       17.9501083303
  H        18.6485978143        2.3578712192       23.4338578374
  H        17.6739584354        3.1985489110       22.1103170732
  H        17.7707371838        1.4659743653       22.3027010283
  C        12.2744808452        7.3361321024       10.0577890884
  N        12.1829147963        8.7028392641       10.1062295276
  O        11.2658595640       10.3035541304       11.4820617826
  S        13.1682658611        6.6663342295        8.7010452159
  C        12.2487425125        9.5796494714        8.9456108680
  H        12.4998701068       10.5427497889        9.3751201332
  H        13.0714387378        9.2680410103        8.3037476561
  C        10.9618195761        9.5131613067        8.0867878978
  H        10.6687995463        8.4777652561        7.7940718114
  H        10.1868790503        9.9118911549        8.6694129657
  H        11.0614935787       10.1419873895        7.2491907908
  H        20.8028105531       11.7425738066        3.3734579429
  C        21.4244340070       10.8408407094        3.4248416827
  H        20.6362665447       10.0883100843        3.4549825049
  C        22.3467282145       10.7693278064        4.6636538675
  C        22.1358176999       10.5064522325        2.1440516344
  C        21.5433672649       10.8327183800        5.9595315251
  H        23.1791772587       10.0764086756        4.6626780926
  H        22.9672531139       11.6802653733        4.8122171939
  H        21.4731324561       10.6483372133        1.2507020899
  H        22.3585649009        9.4209764855        2.1166027639
  H        22.9433040272       11.2124243316        1.9454931474
  C        20.6978824915        9.6279940833        6.4089228078
  H        22.1663370767       11.2066714594        6.7449293647
  H        20.8684830291       11.7417603808        5.9141482915
  C        19.9276147260        9.7989842319        7.6642299915
  H        21.4546175009        8.9018205038        6.5546629015
  H        20.0916320448        9.2349350999        5.5504204023
  C        18.8098238153       10.8110715284        7.5323542423
  H        20.5255564265       10.0604395052        8.4971101415
  H        19.5243812253        8.8788012849        8.0513650191
  C        17.6277322288       10.2556017905        6.8118322734
  H        18.6222687961       11.1505785458        8.5167970421
  H        19.1341184121       11.6097157920        6.9642571171
  C        16.3272247667       11.2020297279        6.7508081022
  H        17.5043816784        9.2717427393        7.0887521646
  H        17.9937531189       10.1575560364        5.8046542231
  C        16.6257741979       12.5686096923        6.1861269663
  C        16.0540050908       11.8117519849        8.0601005897
  C        15.1835866898       10.4705955530        6.0160159157
  C        16.5771172623       13.6184304921        7.0699866320
  C        17.0822002864       12.9070259436        4.8719145783
  C        16.1816646748       13.1105398299        8.2674328833
  C        15.6545680294       10.9763626186        9.1462049245
  H        15.4880431621       10.2653646792        4.9770474010
  H        14.9791736269        9.4257686239        6.4198138852
  C        13.8500897036       11.2669820253        6.0412257154
  S        16.9970688566       15.1148725274        6.3038454113
  C        17.2801565987       14.2655695774        4.7705188455
  H        17.0806075350       12.2032464174        4.0240697327
  C        15.8923217330       13.6311440400        9.4856486857
  H        15.7127065557        9.9501516484        9.0141157071
  C        15.3368715694       11.4472531357       10.3239245165
  H        14.1108445361       12.2924467873        5.8105910367
  H        13.4971282964       11.4303132122        7.0486431607
  C        12.8055443871       10.7250403696        5.1258720609
  C        17.6013332047       14.9934123801        3.5167163396
  C        15.3968122362       12.7965011931       10.5455423034
  H        15.9874653769       14.7007062028        9.6297484966
  C        14.8773162321       11.0322497045       11.5779941942
  H        11.8736578362       11.2065133687        5.3904500075
  H        12.6407636579        9.6593597635        5.3252028646
  C        13.2141135791       10.9974257454        3.6514495862
  C        17.8607053526       16.4046208679        3.3530222406
  C        18.0239625698       14.2504712940        2.3409457842
  C        14.9367615803       13.4530011393       11.8661846035
  C        14.6913693208       12.1283393175       12.4796423608
  S        14.5536033042        9.4990779820       12.2973330616
  H        13.9818132975       10.2991899423        3.4439208325
  H        13.4907677838       11.9660246164        3.3792958997
  C        12.2968996923       10.4597410066        2.6500696724
  N        17.5654658919       17.3873043812        4.3519854812
  C        18.1180239435       16.9791703966        2.1630966501
  C        18.4292470815       14.8467720624        1.1685265482
  H        18.0570818494       13.1534799597        2.3054306332
  C        13.6171098148       14.2586299188       11.6251496689
  C        15.9698550875       14.3840185995       12.5464276409
  C        14.4067552068       11.7023452680       13.7840077696
  C        14.1676460549       10.3854001797       13.8335134828
  H        11.8491707846        9.5333414522        3.0026218267
  H        11.5449314147       11.2490022951        2.6011014701
  C        13.0004257454       10.2720338518        1.2548867300
  S        17.6761508398       18.8511381227        3.7441499063
  N        18.1258910209       18.3999774769        2.2608019073
  C        18.4071608885       16.3335303675        0.9543119576
  H        18.6257809880       14.1819503780        0.2777558091
  H        13.7018846205       15.1324108356       10.9997288254
  H        13.1526293389       14.5168370875       12.6034514664
  C        12.5160979232       13.3986007763       10.9331593984
  H        16.4028154715       15.1513391495       11.8964236230
  H        15.5635705189       14.8689518308       13.3915033310
  C        17.1065171799       13.5861120966       13.1535978927
  H        14.2772099720       12.4469733957       14.5837998523
  C        13.8845006196        9.6257549335       15.1055883482
  H        13.5508073052        9.3223746629        1.2233242167
  H        13.6909362906       11.1436900363        1.1593621671
  C        12.0852490610       10.3927686137        0.0093106603
  C        18.6959476037       17.0589806458       -0.2670000549
  H        12.8167007699       12.8306785934       10.0963396407
  H        12.1931998455       12.7699107172       11.7177140304
  C        11.2577378068       14.1215542934       10.4744483148
  H        17.7418365207       13.2613962447       12.2852246286
  H        16.8013498790       12.6451847320       13.5942378249
  C        17.9046330613       14.4260720101       14.1641880588
  C        13.8798025580        8.2198764561       15.2740765900
  C        13.6138830005       10.4513120354       16.3341603976
  H        11.6602624420        9.4607027683       -0.3234624327
  H        11.2008816019       10.9828479102        0.2860663111
  C        12.7233208115       11.1129513283       -1.1835971999
  H        18.3512555577       18.0783503126       -0.2422231650
  C        19.0662304400       16.6198275017       -1.5194211130
  H        11.4380475561       14.7028544180        9.5572996060
  H        11.0081234017       14.9067512517       11.2264391433
  C        10.1017757977       13.1825392550       10.3279144491
  H        18.1548166604       15.3993568162       13.7616300558
  H        17.2156195817       14.4221270836       15.0240827592
  C        19.1850091218       13.7504539026       14.7093811364
  N        14.0693882764        7.3224220707       14.2284297330
  C        13.5280978905        7.5630327542       16.4572343682
  C        13.3597600698        9.7801627903       17.5293094241
  H        13.5697670354       11.5750293538       16.3012578076
  H        12.6484810742       12.2279237229       -1.0606766886
  H        12.0824327630       10.9895232794       -2.0458429668
  H        13.6564976491       10.7324820026       -1.5064599030
  S        19.3850762673       14.9549244472       -2.0433577627
  C        19.1564839968       17.6003687679       -2.6448531973
  H        10.4609541606       12.3077707240        9.7883997296
  H         9.8443567648       12.7658565375       11.2980047456
  C         8.9176542074       13.8361857355        9.6267941504
  H        19.1256230097       12.6582479934       14.9092643551
  H        19.2980155754       14.2865457546       15.6235484901
  C        20.4206169911       14.0728637143       13.8905308394
  S        13.8725153114        5.8212606838       14.7520285455
  N        13.4253668631        6.1750203528       16.3077992813
  C        13.4053842942        8.2527179312       17.6832950019
  H        13.1755191657       10.3999673688       18.3517834606
  C        19.6325089460       15.6144558244       -3.6598104609
  N        19.4729463332       16.9479480903       -3.7536621494
  O        18.9031964695       18.8052562218       -2.4957068869
  H         8.5352429236       14.6708945785       10.2545398520
  H         9.2907818809       14.3231239881        8.7266508674
  C         7.8417315900       12.9028463242        9.3036450612
  H        20.7275669029       13.2144246007       13.4212436257
  H        20.1709216724       14.8414874198       13.1533013914
  C        21.6929985572       14.3882573063       14.6984017597
  C        13.0732922453        7.5364087174       18.8586751981
  S        19.8977021132       14.5677151267       -5.0310038332
  C        19.5633566926       17.5865747222       -4.9956764975
  H         8.0820114776       12.2563558107        8.4666218933
  H         7.5569049497       12.2180685439       10.1186123583
  C         6.6823469283       13.6486392217        8.7415694692
  H        22.5375659220       14.3555490931       13.9987941501
  H        21.7756125491       13.5962656138       15.4408720067
  C        21.6432090097       15.8591583244       15.2111090657
  H        13.4895232144        6.5523503758       18.9177041006
  C        12.4388595456        7.8836902090       20.0517656754
  H        20.3931531048       17.0330874420       -5.4872357043
  H        19.9009374695       18.6390111114       -4.8862655767
  C        18.2410768017       17.6083725986       -5.8078716656
  H         6.3204505217       13.1898870872        7.8332858206
  H         6.9762304703       14.6775988110        8.4543253675
  C         5.6126826817       13.7765828719        9.8301980857
  H        20.6128499435       16.0565430011       15.4590911525
  H        22.2120950369       16.0031935890       16.1368257006
  C        21.8862345330       17.0239275366       14.1422682217
  S        11.6961168259        9.3841537386       20.4396401941
  C        12.3232075897        6.8247887785       21.0991906050
  H        17.6969981345       16.6509006243       -5.8041809308
  H        18.4454186658       17.9122399428       -6.8517125183
  H        17.5368436916       18.3784983019       -5.4436635806
  H         5.9757302532       14.2875368483       10.6998728942
  H         4.8262217795       14.2852959941        9.3553085233
  H         5.3454372648       12.7742424780       10.1273843654
  H        21.0755430134       17.0702663525       13.3717616429
  H        21.8064140262       17.9505656806       14.7345978392
  H        22.8569832081       17.0079967427       13.6906679327
  C        11.4908750536        8.7032118101       22.0140726128
  N        11.6983526489        7.3403109374       22.1347758669
  O        13.0067769626        5.7882487674       21.1800202753
  S        10.6572132397        9.4736848882       23.3058270880
  C        11.5813061516        6.5408572570       23.3948415317
  H        11.2894902485        5.5737176145       23.0783887353
  H        10.8350562854        6.9630256778       24.0267852723
  C        12.8565456127        6.4941297734       24.1741438485
  H        13.1901869533        7.5508188385       24.1976647962
  H        13.6072378001        5.9071034137       23.6209805762
  H        12.7867746237        5.9587109753       25.0982772633
