352
 i =    14100, time =    14100.000, E =        24.8430357354
  H        12.0441993790        6.7167841972       32.6029023401
  C        11.9335925429        5.6666877782       32.5254287309
  H        12.7902243970        5.2086183708       32.0615910274
  C        10.8027829983        5.6282316860       31.5533341797
  C        11.4862839602        5.0582767448       33.8243029710
  C        11.3548756496        5.8647320776       30.1449377718
  H        10.2969753975        4.7323189448       31.5450304619
  H         9.9947913839        6.4101199500       31.7210466927
  H        12.3839971253        4.5578500367       34.2383243376
  H        11.1346182924        5.8413304508       34.5045815692
  H        10.7357572236        4.2817399360       33.7833267218
  C        10.2756407123        6.2819775328       29.1607669516
  H        11.7753705021        4.8811007175       29.8857988845
  H        12.1989254312        6.5086619827       30.1479698249
  C        10.8613623822        6.2996299243       27.6747188666
  H         9.3374202374        5.7287624976       29.2948722163
  H         9.9015777172        7.2748573705       29.4141010154
  C         9.8724739084        5.6716097584       26.6433444635
  H        11.8300008472        5.7991197241       27.5359092177
  H        11.0161479518        7.3780309979       27.3659730315
  C         8.5375020238        6.4960466182       26.4514779082
  H        10.4378128082        5.6352073071       25.7157785215
  H         9.5761640523        4.6574670661       26.8220927898
  C         7.3053445280        5.8015638031       25.7361634295
  H         8.1495647694        6.9640022528       27.3320766248
  H         8.7095825709        7.4057330306       25.8627789845
  C         7.0250662420        4.4879233328       26.4193898857
  C         7.7944519259        5.1511896197       24.4619244838
  C         6.0559869970        6.7083167358       25.7101195726
  C         7.1990820262        3.4146251382       25.6277493329
  C         6.4726409329        4.1647848824       27.6594004238
  C         7.7268233088        3.7784255289       24.3792937320
  C         8.2501620512        5.8406471207       23.3095510970
  H         6.2944354518        7.4541436969       24.8482178931
  H         6.0162100750        7.2259649645       26.6210140550
  C         4.8181416226        5.8922383245       25.2295236269
  S         6.7811610746        1.9249769527       26.3528024157
  C         6.2358219833        2.8238633010       27.7638870802
  H         6.2491806763        4.9535271319       28.3430306676
  C         8.1595074253        3.2124451633       23.2529142228
  H         8.0946890644        6.8665056547       23.3971971219
  C         8.5834301801        5.2077768949       22.1506155231
  H         5.2128274980        5.2828464958       24.4424636129
  H         4.5132975881        5.1097744922       25.9902717153
  C         3.5461476851        6.6184765988       24.8479074832
  C         5.8063756042        2.0036774946       28.9966679054
  C         8.5855778052        3.8527633351       22.1201623658
  H         8.2017299653        2.1475729309       23.2747838345
  C         9.0053758864        5.4923889780       20.8929574803
  H         3.0096673967        6.1087195559       24.0443474592
  H         3.8875545023        7.5718049548       24.3856840538
  C         2.5960300268        6.8599886340       26.0805021639
  C         5.7758151219        0.5998133420       29.1147578845
  C         5.3218755741        2.7130763444       30.1632617591
  C         8.9443562190        3.0645780537       20.9343826682
  C         9.2419288178        4.3565958540       20.1333403971
  S         9.2888270600        6.9356084978       20.0870741409
  H         1.8044848107        7.5034559789       25.6849765248
  H         3.1378341587        7.3735555792       26.7779179927
  C         1.9262185360        5.6197162204       26.6027847525
  N         6.0732563776       -0.3105505672       28.1051429775
  C         5.4834530423        0.0165986862       30.3000619510
  C         4.9746530274        2.0697166360       31.3889597529
  H         5.2892922522        3.8012499845       30.1422953883
  C         7.8703865409        2.2030714853       20.2472555261
  C        10.2255669144        2.2007135143       21.1379405559
  C         9.6046936080        4.6224229892       18.8229053580
  C         9.7007235687        6.0003247361       18.6364350031
  H         1.1798140132        5.2344830905       25.9097781204
  H         2.6865914705        4.8387570271       26.6142193885
  C         1.3846285796        5.7928580311       28.0070279019
  S         6.0950782605       -1.8016631897       28.8034258686
  N         5.7519356648       -1.3833888379       30.3003147506
  C         5.1656405232        0.6542257609       31.5417067756
  H         4.6564015601        2.7560685685       32.1362910461
  H         7.4972914358        1.3786342281       20.8218911690
  H         8.2024532519        1.8404553220       19.2628739404
  C         6.5548503317        2.8820481120       19.9349755507
  H        10.3591117439        1.6943049616       20.1633009583
  H        10.1329733201        1.3294861057       21.8180025708
  C        11.5293893868        2.9694890202       21.4240390097
  H         9.6679231061        3.7430268115       18.1586285105
  C         9.9512000272        6.7753157501       17.3130157194
  H         0.7527474477        4.9672031727       28.2690374835
  H         0.7168673856        6.7136304724       27.9790321078
  C         2.4200841525        5.8246724102       29.0804113459
  C         4.9488380920       -0.1257465521       32.7499067558
  H         6.6438950473        3.5423971505       19.1104160465
  H         6.1468963246        3.4700610476       20.7203736574
  C         5.4716540823        1.8882153341       19.4643186434
  H        11.5569859988        3.3889944868       22.4486469463
  H        11.6271132082        3.8195759576       20.8274559696
  C        12.7489986144        2.0855592607       21.1719359875
  C        10.0391691932        8.1302841636       17.0708421997
  C        10.1902502541        5.8413968282       16.1711899148
  H         3.1981468095        5.0579710976       29.0030840942
  H         3.0741011519        6.6499706624       28.9882724886
  C         1.9192975238        5.9670262005       30.5021351072
  H         5.2067691986       -1.1989507516       32.6588431944
  C         4.7549095512        0.2843624132       34.0591184068
  H         5.1402763779        1.4008929708       20.3437343385
  H         5.9138637591        1.1927438986       18.8194235196
  C         4.1558761745        2.3793914787       18.8508875278
  H        12.7826578635        1.2600375230       21.9454499260
  H        12.5589063569        1.6497407820       20.2052364742
  C        14.0599442606        2.8911931552       21.1251642854
  N         9.6293193704        9.1635313008       17.9381210607
  C        10.4291987792        8.6748992344       15.8869938536
  C        10.4984307030        6.3544126690       14.9143033388
  H        10.1827911378        4.8024977203       16.3568392062
  H         1.2287240154        6.7982064605       30.5760544712
  H         1.4305803305        5.0921245820       30.9089454890
  H         2.7093250692        6.1813981106       31.2171552647
  S         4.5918992058        1.8844906709       34.6313377635
  C         4.5698330871       -0.7868235448       35.0793575372
  H         3.9545575166        3.2828245004       19.4270004975
  H         4.2193006395        2.6149048027       17.6981296808
  C         3.0396718542        1.3281406389       18.9160916369
  H        13.7708103262        3.6138655179       20.3812636264
  H        14.8961379803        2.3323526112       20.6932797103
  C        14.3916860453        3.4189696381       22.5355276037
  S        10.0571619911       10.6515307192       17.3255853123
  N        10.6428103599       10.0470766062       15.9308972601
  C        10.6405708530        7.8115326687       14.7363201187
  H        10.6402091336        5.6725753659       14.0826436560
  C         4.2680099558        1.0682615035       36.2324037143
  N         4.3478339568       -0.2510138618       36.2598270711
  O         4.6256874817       -2.0251545817       34.7863015089
  H         2.0851021088        1.7825897705       19.0722696246
  H         3.2477421265        0.7188487221       19.7799730737
  C         2.9474555517        0.3217278971       17.7136783957
  H        15.1255128250        4.2529374876       22.4355574789
  H        13.5297131948        3.8601194062       23.0658940215
  C        15.1071917207        2.3560172741       23.3123346764
  C        11.0077104954        8.4176312051       13.4739824054
  S         3.8824892595        1.9853023473       37.5844213758
  C         4.3232152172       -1.0201482383       37.4504825375
  H         1.8728521559        0.0509986283       17.6364465878
  H         3.2238354876        0.6620533641       16.7332114051
  C         3.8587011933       -0.9008017213       18.0266677106
  H        15.0284360888        1.3907542122       22.7885155510
  H        14.4922493769        2.2573992563       24.2397474235
  C        16.5371490050        2.4840448410       23.6956762030
  H        11.0501096532        9.5214828685       13.4516849438
  C        11.3283553080        7.8163172006       12.3143703109
  H         3.7628884672       -0.5024008288       38.2424889993
  H         3.6522739921       -1.8237415646       37.3471741505
  C         5.6981928367       -1.3884287947       37.9217594877
  H         3.7750559992       -1.0736490313       19.0787343305
  H         4.8588762242       -0.7053052821       17.6919310091
  C         3.4363044347       -2.1737207693       17.2282341143
  H        16.6654764355        3.2941722708       24.3434316250
  H        16.6281936258        1.6261413649       24.4091379985
  C        17.5155145703        2.3206692098       22.5395771665
  S        11.3916553376        6.1690687414       11.7863193216
  C        11.6650793796        8.7615247996       11.2486863434
  H         5.5868117704       -2.0900760181       38.7515780569
  H         6.3857959778       -1.9688773716       37.2592238393
  H         6.1954639837       -0.4515564121       38.2327139187
  H         3.7242245922       -1.9646402686       16.2400573770
  H         2.3900431815       -2.3708309268       17.3088716154
  H         3.9601223309       -3.0446847800       17.5520505339
  H        18.4925405370        2.5720208160       22.9352137501
  H        17.3914130102        3.0536249466       21.6612145797
  H        17.4900832578        1.3253263037       22.1208256386
  C        11.9689408559        6.7698634431       10.2548569594
  N        12.0620597631        8.0746361421       10.1909499365
  O        11.5323693881        9.9775652018       11.3311960352
  S        12.5321806078        5.7613105811        8.9477199654
  C        12.3040586046        8.7520649975        8.9529722707
  H        12.6862703448        9.7169635604        9.1544216939
  H        13.0382626039        8.2651550045        8.2604675286
  C        11.0208220534        8.8823883692        8.1015928949
  H        10.2720713649        8.1364339183        8.3102014234
  H        10.6143425153        9.8613050067        8.1868884883
  H        11.3372168537        8.6982352073        7.0703945842
  H        21.2269399604       11.0922251001        3.4595787529
  C        21.7509650254       10.1525568862        3.7038588148
  H        20.9899999934        9.3623442830        3.8261828636
  C        22.7194862492       10.2762437604        4.8410140980
  C        22.3686451130        9.8106868689        2.3265303094
  C        21.9780270007       10.5606493025        6.1671702827
  H        23.3146763131        9.3656125197        4.9718129255
  H        23.3209591791       11.1439026986        4.6125877460
  H        23.3421618384       10.2360046337        2.3137675315
  H        21.7257619005       10.2299215439        1.5606969057
  H        22.5613817578        8.7427061690        2.1769950669
  C        21.3312374875        9.3428409613        6.7941229563
  H        22.5480629829       11.0755228456        6.9889646030
  H        21.1522567776       11.2407225355        5.9459718232
  C        20.6561749400        9.4976356269        8.1209784186
  H        21.9529386971        8.4873413051        6.8298139711
  H        20.5478855665        8.9550469030        6.1491320692
  C        19.4141822028       10.4337068467        8.0340587436
  H        21.3112952022        9.9651717062        8.8669660115
  H        20.5861506167        8.4822296302        8.4889461832
  C        18.1922262806        9.6454430290        7.7262819244
  H        19.3288114218       10.9236304857        8.9731942272
  H        19.5584853732       11.3284380957        7.3799530604
  C        16.9272575544       10.5436168315        7.4685932593
  H        17.9191462391        8.9678663517        8.5042388301
  H        18.4457208881        9.0503368981        6.9418066998
  C        17.2395261997       11.8521886095        6.7763324779
  C        16.4161809159       11.2808391556        8.6311893631
  C        15.8418987315        9.7859418355        6.6405377077
  C        16.7741227249       13.0010870066        7.4366485844
  C        17.7526120621       12.1240760292        5.5368262705
  C        16.3345374272       12.6151920150        8.6883418361
  C        15.8882685659       10.5633858572        9.7031109000
  H        16.2932120705        9.4953257201        5.7319876781
  H        15.5750095123        8.9022751269        7.2769990668
  C        14.6155073160       10.5324395721        6.2200199758
  S        17.0496306698       14.4296578339        6.5914428676
  C        17.7141170357       13.4880165568        5.2565258988
  H        18.2089710514       11.3924133611        4.9172308005
  C        15.9286353749       13.2350571935        9.8019641153
  H        15.9661914857        9.4848827789        9.6361446212
  C        15.4625351237       11.2185346215       10.8285440096
  H        14.9674013355       11.5198173808        5.8358454482
  H        13.9597595289       10.6908639971        7.0216127190
  C        13.8760609794        9.8014710175        5.0880799442
  C        18.0654042994       14.2089113969        3.9828844188
  C        15.4723551037       12.5867376181       10.9497147598
  H        16.0037387818       14.3049219319        9.7704516750
  C        14.9513292495       10.8214542855       12.0419924005
  H        12.7963136700       10.0544144595        5.0477654524
  H        13.9542484009        8.7996220874        5.3858784701
  C        14.4231186872        9.9554417461        3.6344614666
  C        17.9928458014       15.6036344618        3.6594931042
  C        18.3414352920       13.3101295277        2.8230756352
  C        15.0085606282       13.2703997188       12.1756130798
  C        14.6897421818       11.9327295950       12.8335220026
  S        14.6112484299        9.3696349880       12.9281728435
  H        15.2064420112        9.2360183461        3.3687793974
  H        14.8865277389       10.9464836535        3.4992883869
  C        13.2909678656        9.6390350039        2.6308517451
  N        17.8296995279       16.6616941939        4.6377704053
  C        18.1879703319       16.1022907006        2.3671337101
  C        18.7473936262       13.8161442150        1.5538090138
  H        18.2634003391       12.2917871447        3.0309151266
  C        13.6504868612       14.0190803854       11.9143268619
  C        16.0799295400       14.1443587961       12.9337745721
  C        14.2065106114       11.6566070396       14.1124725183
  C        14.1244313284       10.3032549968       14.3326789728
  H        12.5956070346        8.9559636343        3.0748838166
  H        12.7211665152       10.5992779503        2.6237426767
  C        13.6999966366        9.4003061831        1.1157535228
  S        17.8104701227       18.1234444302        3.8782016738
  N        18.0645669153       17.4962820540        2.4110097583
  C        18.5526244445       15.2703749084        1.2111466426
  H        19.1318532214       13.1277777967        0.7972844430
  H        13.8592938869       14.9761168294       11.4000410074
  H        13.2307410588       14.3538922402       12.8470110580
  C        12.4620956844       13.3043597204       11.2862628752
  H        16.3893209336       14.8378642244       12.1595933469
  H        15.6379716858       14.6910804372       13.7669053898
  C        17.3130160104       13.3592490506       13.3978477836
  H        14.1572771681       12.4406697458       14.7806023166
  C        13.9369273291        9.6331865772       15.6543345761
  H        14.4852772543        8.5502322781        1.1185637472
  H        14.1280463997       10.3143669944        0.7538661711
  C        12.5478127925        9.1066806715        0.1612423934
  C        18.8751106078       15.8125949707       -0.0518191127
  H        12.6971074649       12.7866555246       10.3660353544
  H        12.1859919355       12.5774833184       12.0713454110
  C        11.2378222892       14.2018617834       10.9318658023
  H        17.7551552737       12.8267480486       12.5805813767
  H        17.0205541288       12.6483624898       14.1396397795
  C        18.3152422352       14.2782005390       14.1271338310
  C        13.8973121481        8.2771482520       15.9201441840
  C        13.7318832637       10.5770338151       16.8207206713
  H        12.3540975368        8.0246777586       -0.0563490323
  H        11.6873551136        9.5107681764        0.6111125607
  C        12.6827812219        9.8598155613       -1.2035714599
  H        18.6216981677       16.8134705027       -0.0241015457
  C        19.3144894022       15.3664320597       -1.2835517687
  H        11.4685032872       14.6667515252        9.9406007079
  H        11.0723596277       14.9171760791       11.7477569720
  C         9.9463382770       13.3946381320       10.8958854064
  H        18.4364478303       15.0704423004       13.4014833572
  H        18.0943082321       14.6359364406       15.1300030195
  C        19.6078429036       13.4806312023       14.1840070685
  N        14.2942957297        7.2856346778       15.0148087165
  C        13.4732037836        7.7452434259       17.1225977302
  C        13.3414008788       10.0047503390       18.0404710930
  H        13.7866971617       11.6474325067       16.7236197943
  H        11.6859730111        9.9827698630       -1.6793575508
  H        13.4634527236        9.3322678719       -1.8248893856
  H        13.0846199589       10.8998395264       -0.9720526521
  S        19.8068871821       13.8032028962       -1.7202132103
  C        19.4394872861       16.3827959721       -2.3501725304
  H        10.2327741476       12.2811510331       10.8407084575
  H         9.2561099484       13.6431925773       11.7462381028
  C         9.1483636009       13.6749090967        9.6251395136
  H        19.7812591026       12.8329409632       13.3307327741
  H        19.5874933589       12.7155930465       14.9799349616
  C        20.8867117471       14.2796828787       14.3510050658
  S        14.3394432661        5.8604310405       15.8249369035
  N        13.4730005236        6.3227318923       17.1895832703
  C        13.0560568244        8.5338323688       18.2205471581
  H        13.1892307342       10.6327908393       18.8985477232
  C        20.0822523146       14.5513232033       -3.3342517852
  N        19.8247796351       15.8272003311       -3.5083979618
  O        19.3002037318       17.5804486380       -2.0908320590
  H         8.6453002193       14.6501977899        9.6156310371
  H         9.7310289751       13.6670010383        8.6942418295
  C         8.1382242439       12.5642003589        9.4270271805
  H        21.3848658032       14.0259678890       15.2921422048
  H        21.5657550342       13.9534937478       13.5776250466
  C        20.7545758006       15.7995155379       14.2637434108
  C        12.5906444929        7.9618995540       19.4488908064
  S        20.6124177008       13.5681516070       -4.7424842471
  C        19.9063437828       16.5828904707       -4.7629347018
  H         8.1020551252       12.3629752972        8.3509594940
  H         8.5196789249       11.5523919643        9.7612220584
  C         6.8475235516       12.7004928758       10.2137803475
  H        20.0281592148       16.1503232488       14.9846087698
  H        20.4664828976       16.0241344032       13.2219000006
  C        22.0146562811       16.6542231816       14.5388602108
  H        12.6786264073        6.8720651935       19.5473461681
  C        12.1557314522        8.4935766961       20.6403410901
  H        20.6627640060       16.1340843501       -5.4448790398
  H        20.2392930709       17.5883303242       -4.5244302712
  C        18.4940772281       16.7660394992       -5.3471550560
  H         7.1075259676       13.0545700682       11.2480168567
  H         6.5169228805       11.6942292704       10.3748925507
  C         5.7219047784       13.5861124352        9.5324802468
  H        22.9515986747       16.0539268049       14.3356300506
  H        21.9537131031       17.5619651583       13.8679372068
  C        22.0735256715       17.2721827076       15.9860779782
  S        11.6919853978       10.1159473851       20.9061560186
  C        11.8336748626        7.4752880667       21.6903320624
  H        17.7854707122       17.0783197965       -4.5556412857
  H        18.2012372685       15.8296940016       -5.7817603058
  H        18.5308446024       17.4599448459       -6.2194335388
  H         4.7746098945       13.0378528375        9.2922516448
  H         5.4992858715       14.3664832145       10.2778270729
  H         6.1078547919       14.0609948599        8.6166068472
  H        21.4027519740       18.1490072828       16.1526343072
  H        21.8820071997       16.4817643936       16.7283243791
  H        23.0427185388       17.6640045942       16.2966772073
  C        11.4833673947        9.5530921129       22.5809523011
  N        11.4704773168        8.2061764028       22.7712914158
  O        11.9805829221        6.2027144278       21.6341917949
  S        10.8655200667       10.5870764362       23.9090202766
  C        11.3119863034        7.4979266300       23.9976378495
  H        10.7550857650        6.5362689409       23.8742351009
  H        10.6750312299        7.9518907215       24.7147079642
  C        12.6702901321        7.2230457180       24.6562628056
  H        12.9278761131        6.1339890973       24.5494632307
  H        12.8132395496        7.6304580760       25.6573276209
  H        13.4075207811        7.7412549099       24.0257266660
