352
 i =    98500, time =    98500.000, E =        25.0054512685
  H        10.2978238042        5.9767652929       31.9318672450
  C        11.2738149594        6.1842641489       32.0809205364
  H        11.1733514858        7.2851624495       32.3487488579
  C        12.0013479155        6.2138573941       30.7255187828
  C        11.7435085371        5.3151645697       33.3067720266
  C        11.3390195608        5.2822223255       29.7197147290
  H        12.0667264861        7.2024795658       30.2975100445
  H        13.0599291431        5.9477397775       30.9239126746
  H        11.2181716144        4.3621658331       33.1872265082
  H        12.7836094062        5.1651548528       33.0300240503
  H        11.6451445624        5.5472338365       34.3572733628
  C        10.3949272711        5.8966778431       28.7737974602
  H        10.7905404141        4.4849705117       30.2072596774
  H        12.1845199257        4.7828267783       29.2128732395
  C        10.8356572841        5.9140994351       27.3102138445
  H         9.3565410219        5.5463168140       28.8400106064
  H        10.2652336508        6.9896129416       29.1225123486
  C         9.8973655737        5.1619457670       26.3628241486
  H        11.8801854941        5.6797618953       26.9980002432
  H        10.8105257121        6.9084119710       26.9302119908
  C         8.6077274657        5.9361828675       26.0285481295
  H        10.4195191744        4.9374566985       25.4539967876
  H         9.6270736849        4.1747095452       26.7957849201
  C         7.5444599272        5.0841794087       25.2380956043
  H         8.1882933126        6.3584694391       26.9481786521
  H         8.8190438816        6.8626683879       25.4459471741
  C         7.2317385535        3.7596591616       25.9116342383
  C         8.0388163214        4.4178007744       24.0260916426
  C         6.1798106425        5.8737805733       24.8422190800
  C         7.4175856473        2.6799735079       25.1009940730
  C         6.6712425669        3.3692297674       27.1174852814
  C         7.9887052855        3.0733200604       23.9367112492
  C         8.6515553718        5.1041293397       22.9813424685
  H         5.6290656046        5.3293852733       24.0305457644
  H         6.3958955005        6.7235882116       24.3141495434
  C         5.2749977770        6.3433551484       26.0118508864
  S         7.0990828606        1.1586366017       25.8498814603
  C         6.5746144173        1.9958788744       27.3043263978
  H         6.4954981675        4.0762034205       27.8852554221
  C         8.4448033856        2.4477845996       22.8049244754
  H         8.5830838658        6.2033470333       23.0902161528
  C         9.0674810102        4.4851490166       21.8176470570
  H         5.3698898898        5.8758595085       26.9691166485
  H         5.4907737599        7.4090248081       26.1939895808
  C         3.9046801666        6.2368592445       25.6897133677
  C         6.1234493652        1.4069054966       28.6407420713
  C         8.9708723695        3.1231555425       21.6938716927
  H         8.2169417472        1.3858130316       22.6945200545
  C         9.4093155742        4.9107592291       20.5595247683
  H         3.7404940211        5.2513081088       25.3682941494
  H         3.7092885015        6.8678827718       24.8289845131
  C         3.0238199130        6.5937593141       26.9000639003
  C         6.3556724272        0.0634618456       28.9806978317
  C         5.5979719966        2.2720591206       29.7048250746
  C         9.3342052825        2.4404393661       20.4732462305
  C         9.6002381706        3.8030839697       19.7717633287
  S         9.6648942767        6.4110757346       19.8672296598
  H         2.2784674601        7.2138073163       26.4805269070
  H         3.4654789797        7.2889945658       27.5177421677
  C         2.3633285398        5.4750488837       27.7254594046
  N         6.8487733083       -0.9872614841       28.1330439627
  C         6.1291899176       -0.4790570154       30.2583832713
  C         5.3158656267        1.7869304387       30.9592852910
  H         5.5664798186        3.3383377852       29.5319268386
  C         8.0828004036        1.7462142410       19.9156241203
  C        10.5463716507        1.5693029738       20.6445796780
  C         9.8620173221        4.2843827503       18.4740674795
  C         9.9459445065        5.6458449237       18.3636310875
  H         1.5471212523        4.9829790562       27.1748038256
  H         3.1523094185        4.6818346814       27.8984986196
  C         1.7852640056        5.8583906227       29.1076722828
  S         6.8177175842       -2.4305464138       28.9188498176
  N         6.4955063872       -1.8350861436       30.3903665299
  C         5.6880255429        0.3347406347       31.3355969506
  H         4.9509159765        2.5476016045       31.6482849174
  H         7.7169154246        1.1095733827       20.6968523553
  H         8.5393956198        1.1515411811       19.0983422606
  C         6.8288618039        2.4403532958       19.5554501854
  H        10.8343420940        1.0895035264       19.6938440438
  H        10.4772225499        0.8041049617       21.3172940769
  C        11.6919889503        2.3643381310       21.1973266829
  H         9.9828068589        3.5732026392       17.6396668797
  C        10.1342327054        6.3426158883       16.9839807681
  H         1.1975632593        5.0335345834       29.4388475915
  H         1.2227873154        6.7669309120       28.9505542203
  C         2.8824246069        6.2233426261       30.0837657977
  C         5.4593244279       -0.3168511159       32.6115865139
  H         7.0336714790        3.0335069655       18.6537579982
  H         6.5343847621        3.1223419052       20.3339533912
  C         5.7874786914        1.4140271974       19.3130501961
  H        11.5827440027        2.6119512263       22.2458479371
  H        11.8071096984        3.3728708768       20.8549802452
  C        13.0140332401        1.6828493578       20.9626823050
  C        10.2016036857        7.7439071981       16.9269653081
  C        10.5243100973        5.5831674469       15.8265469478
  H         3.8391789352        6.2951911169       29.5618354837
  H         2.6200066723        7.2034875660       30.4686732291
  C         3.0689929542        5.1503051221       31.0669182643
  H         5.7228952538       -1.3450276309       32.6010985649
  C         5.0495413714        0.1281232876       33.8009974599
  H         5.4985338663        1.0960334807       20.3097500079
  H         6.2591665990        0.6948351648       18.7444377985
  C         4.6310484103        1.9578599831       18.4702016469
  H        13.0199109296        0.6799955249       21.3472235103
  H        13.1919363081        1.6059009824       19.8743286807
  C        14.1558596179        2.5811360014       21.5498976000
  N         9.9086625408        8.6382653104       17.9500428079
  C        10.5249915306        8.3921977082       15.7936323261
  C        10.8491298804        6.2175955548       14.6152173527
  H        10.5861054814        4.4924323096       15.7394930506
  H         2.1387050466        4.8286818644       31.4421844243
  H         3.4653344907        4.3108886330       30.4705568650
  H         3.7412820869        5.2638858346       31.8661042733
  S         4.6594335391        1.7026969115       34.1386072965
  C         4.9091580359       -0.8314116963       34.9550525575
  H         4.4844055801        2.9160579976       18.8803894130
  H         4.9941103802        2.0047219230       17.3833814781
  C         3.3529034705        1.1263989326       18.5951660806
  H        13.7575737634        3.1693171107       22.3345453364
  H        14.5106121607        3.2664757993       20.7992235829
  C        15.3540781510        1.7897462823       22.1644164233
  S         9.9802680784       10.1355834782       17.4885058772
  N        10.4452748171        9.8056722408       15.9276989361
  C        10.7871976552        7.7254115134       14.5810556490
  H        10.9604697643        5.6093674161       13.7048232578
  C         4.1682790940        1.1237047532       35.7324963759
  N         4.3058637319       -0.2032636019       36.0177238966
  O         5.2936303367       -2.0103503888       34.9891402878
  H         2.6515094897        1.6063906111       17.9915881729
  H         2.8336246797        1.1884480813       19.5259092442
  C         3.5470350044       -0.3884874070       18.2539127959
  H        14.8972676800        1.0214209481       22.7462508502
  H        15.9733438524        1.5657093194       21.2835481412
  C        16.0415321946        2.7698927328       23.1445025161
  C        11.0403531519        8.5340920343       13.3999798286
  S         3.7941837911        2.3467936155       36.9416969437
  C         4.2831019796       -0.9150580557       37.2561968807
  H         4.4600128163       -0.6291751787       17.5899796029
  H         3.8199534930       -0.9164159295       19.1644876726
  C         2.2820084561       -1.0376442094       17.8251511008
  H        15.3204980539        3.2270349182       23.7700248546
  H        16.3158692895        3.6536445775       22.5798880657
  C        17.1962198816        2.2211884098       23.9876546337
  H        10.6868454992        9.5424350838       13.4901808990
  C        11.5842574676        8.2160577985       12.1616411165
  H         3.5494689949       -0.3990521219       37.9424763777
  H         3.9869438143       -1.9569533243       37.1606977304
  C         5.7330181991       -0.8792663067       37.8637861526
  H         1.5631437298       -0.6088903557       18.5414535788
  H         2.3487287332       -2.1038381235       17.8920721749
  C         1.8990278498       -0.6020361093       16.4321577148
  H        17.3073347046        2.7522578591       24.9836828659
  H        16.9875480478        1.1642750501       24.2162383301
  C        18.4728720130        2.3667412363       23.2063820750
  S        12.1185230784        6.7028616051       11.6301627863
  C        11.8061118638        9.3292055584       11.1913242545
  H         5.7342525389       -1.0940967407       38.9512564555
  H         6.2982710481       -1.6851662102       37.4078882579
  H         6.1351018017        0.1082449852       37.8245258001
  H         0.9494947588       -0.9625379958       16.1861531154
  H         2.6333429542       -0.7967115181       15.6459174613
  H         1.8257641426        0.4632124819       16.4608158702
  H        19.2075510260        2.1405385974       23.9730047501
  H        18.6224810323        3.3648004856       22.7980862480
  H        18.7120679110        1.6598598437       22.4558443155
  C        12.6070377548        7.5098325630       10.0420903201
  N        12.4568136361        8.9012950678       10.0706158516
  O        11.3012987227       10.4518358171       11.3348934301
  S        13.3654871436        6.6689999607        8.7855240678
  C        12.7007326560        9.7050898444        8.9215902128
  H        12.9890028783       10.6410569284        9.3275941454
  H        13.4631917891        9.3433177430        8.2933228967
  C        11.2924444159        9.8877768439        8.2289380412
  H        10.4065487835       10.0785444205        8.8655903497
  H        11.3120493850       10.7847695286        7.6281228386
  H        11.1120076360        9.0959065998        7.4802361036
  H        21.0679459717       10.8774464144        3.1045329931
  C        21.8194943711       10.2060369790        3.4098940310
  H        21.3834705385        9.2960760325        3.3984925610
  C        22.4484018952       10.4959142038        4.6563650596
  C        22.7930812374       10.2459954299        2.2481816926
  C        21.5208620936       10.6262895882        5.8290208185
  H        23.2719568046        9.7588298824        4.6859858430
  H        22.9400561764       11.4469687196        4.5756756089
  H        22.3416680410       10.7252198256        1.4070539104
  H        22.9853460998        9.1953616766        1.9249768830
  H        23.6904777705       10.8920938218        2.5118570109
  C        20.9496035582        9.2227946665        6.2490123818
  H        22.1626052950       10.9821415342        6.6835399812
  H        20.7711957335       11.3592130420        5.6053520842
  C        20.3349785811        9.2569851283        7.6586853819
  H        21.7661307673        8.4674120984        6.2068837375
  H        20.1393875853        9.0064192463        5.5608646296
  C        19.1857261770       10.2375651735        7.7734859947
  H        21.0213182629        9.4363383224        8.4946802140
  H        20.0009415232        8.2537486672        7.9071662719
  C        17.7988161150        9.6999528577        7.1231850164
  H        19.1364365467       10.4962902063        8.8775105680
  H        19.3955450044       11.1937947269        7.2087289430
  C        16.7106928736       10.7649778082        6.9988705483
  H        17.4674634559        8.8266727860        7.6481140140
  H        18.0319803573        9.2895786658        6.1826854780
  C        17.1097028182       12.1176358598        6.3666905793
  C        16.3959887741       11.4661351153        8.2524556277
  C        15.4890073061       10.1728266026        6.3814030295
  C        16.9808178533       13.1913299969        7.2607833880
  C        17.5524661098       12.4960528677        5.1234568821
  C        16.5004918627       12.7713632013        8.4314700846
  C        15.9244492263       10.7568161476        9.3319337304
  H        15.7988693974        9.4791234331        5.6266140213
  H        15.0664243554        9.4932178517        7.1231296712
  C        14.3359217876       11.1229414056        6.0028094351
  S        17.4207948043       14.6978558467        6.5255443357
  C        17.8096943424       13.8645103616        4.9859552813
  H        17.6936297755       11.7438117937        4.3128286289
  C        16.1154989143       13.3169570432        9.6146818743
  H        15.7028376308        9.7004972071        9.2090199232
  C        15.5873756440       11.2670042223       10.5393661304
  H        14.5718208779       12.0911050845        5.6448579401
  H        13.6203923252       11.3078040984        6.8989113488
  C        13.4196939701       10.4760308202        4.9719459572
  C        18.1765234726       14.4962571672        3.7218882557
  C        15.5627846245       12.6130431372       10.6833688396
  H        16.1143364339       14.3796404287        9.6400193373
  C        15.0949052227       10.9045494177       11.7441868044
  H        12.4639369399       10.9946550559        4.9378414650
  H        13.3865528028        9.4210241247        5.1519899712
  C        14.0428054444       10.6713263527        3.5399714021
  C        18.2835189431       15.8785948619        3.4428853730
  C        18.4849002806       13.6270706300        2.5310120515
  C        15.1459537810       13.3188629784       11.9692163940
  C        14.9739974918       11.9717056855       12.6015507619
  S        14.9055866342        9.4350934873       12.4393461754
  H        15.0009345500       10.3260933673        3.5336140471
  H        14.0304071112       11.7143789558        3.2071667685
  C        13.3429572319        9.7969741349        2.4604404414
  N        18.0072712388       16.9125825183        4.4055858517
  C        18.6857721619       16.4206901027        2.2177987169
  C        18.7351691302       14.1319492282        1.2299435342
  H        18.6457679938       12.5753045659        2.6317037726
  C        13.9062128200       14.2098526835       11.6726075279
  C        16.2588974572       14.0284884830       12.7396346907
  C        14.6678332486       11.5248897172       13.8990997866
  C        14.5588259513       10.1663570341       13.8980722896
  H        13.7405100487        8.8051052365        2.5106196795
  H        12.2190992836        9.7149678194        2.4510911656
  C        13.6582062244       10.2724925139        1.0498243168
  S        18.3026053488       18.3830395397        3.7537374374
  N        18.6928045335       17.8487471538        2.2131488877
  C        18.9875751649       15.5859511273        1.0642880199
  H        19.0269618361       13.4461179140        0.4425800291
  H        14.2290028158       14.9589649812       10.8941809259
  H        13.6997157695       14.6956980661       12.6046563954
  C        12.6836682422       13.5494163549       11.0378785130
  H        16.5470007580       15.0132813979       12.2878514619
  H        15.9228447781       14.3750407687       13.7052236236
  C        17.4779406571       13.2270565486       12.9330017796
  H        14.5632982717       12.2457891191       14.6600358123
  C        14.2325038056        9.3213601215       15.0428020533
  H        14.5973578980        9.8075167399        0.7184064252
  H        13.8632682698       11.3348105929        1.0462744986
  C        12.5631513604       10.0424222925        0.0079397234
  C        19.2953988554       16.3383379257       -0.2043548453
  H        12.9519024501       13.0126593154       10.1520293558
  H        12.1988570226       12.8854303050       11.8069260162
  C        11.6458141191       14.5136055087       10.6498707128
  H        17.7927140749       12.7127630017       12.0336974403
  H        17.4359369040       12.4788949437       13.7143414096
  C        18.6442891737       14.1042757591       13.3805048680
  C        14.1862111989        7.9321196319       15.1751635903
  C        13.8719488412       10.0746382493       16.2077516235
  H        12.5074638457        8.9342130603       -0.1235774323
  H        11.5629878368       10.3318067559        0.3847811020
  C        12.8561486670       10.7812547028       -1.2717940415
  H        19.5344100998       17.3957314215       -0.1034655919
  C        19.3033743095       15.9552938808       -1.5007566783
  H        12.0480343728       15.4661023629       10.4357431103
  H        11.0181080670       14.7534517525       11.5095540873
  C        10.6794306401       13.9594235554        9.5805718918
  H        18.5698262894       15.0467280083       12.7811144348
  H        18.5145106090       14.4582923676       14.4056219291
  C        20.0330418272       13.5662124609       13.1886073341
  N        14.5430108649        6.9413484119       14.2011525709
  C        13.8634643041        7.3167215207       16.3743880525
  C        13.5560221515        9.5400586086       17.4421008209
  H        13.8740865013       11.1720963447       16.1980161101
  H        13.8619620557       11.2061786432       -1.3345259357
  H        12.0083872031       11.4693788535       -1.4970246454
  H        12.8145149169       10.0978600289       -2.1073755397
  S        19.4608420046       14.2621191582       -1.9626461782
  C        19.4776275792       16.9646251324       -2.5498642356
  H        10.1967298897       14.7729622799        8.9719607685
  H        11.3545376041       13.3366287691        8.9661874475
  C         9.5926770129       13.0293835555       10.0282050834
  H        20.3413464884       13.3725527984       12.1873214826
  H        20.0687860251       12.5875816110       13.6887325048
  C        21.1500656368       14.3795480729       13.8385030398
  S        14.5194412863        5.4642531953       14.8961499493
  N        13.9278677821        5.9433805595       16.2830924342
  C        13.6164547090        8.0420074367       17.5812849901
  H        13.2508311719       10.1406588477       18.2589345862
  C        19.7230049855       14.9820552672       -3.5228987390
  N        19.7255913465       16.3222288011       -3.7133946791
  O        19.4975408671       18.1851066416       -2.3546209921
  H         9.1662378853       12.5376084113        9.1692756226
  H        10.0017705331       12.2765538011       10.6792389192
  C         8.4482373736       13.8072693754       10.6484174893
  H        20.9523716635       14.4096945055       14.9310980980
  H        22.0451566449       13.7818007238       13.7635551294
  C        21.4062535736       15.7903135905       13.3123998803
  C        13.2360917970        7.2940274737       18.7210113949
  S        20.1386910421       13.9660482128       -4.8877675800
  C        20.0036112375       17.0005658945       -4.9444480072
  H         7.8947821258       13.1245214954       11.2911176908
  H         8.7523352052       14.6036173211       11.2326382196
  C         7.4706422340       14.3883471041        9.6407347344
  H        21.0287840412       15.8690312288       12.2883014718
  H        22.4874213393       15.8999486446       13.4272198836
  C        20.7733134308       16.8019248078       14.2580786874
  H        13.4764614800        6.2468746732       18.6670144314
  C        12.8235319128        7.6717683556       20.0409742587
  H        20.6884284556       16.5376496352       -5.6821089321
  H        20.5516313529       17.8253578329       -4.7045744517
  C        18.7244897783       17.4273772136       -5.7276647424
  H         7.9764855376       14.5119882759        8.6937869888
  H         7.2653848588       15.3733099442        9.9066521540
  C         6.1388326466       13.6895785522        9.5214118454
  H        20.6527377941       17.6875831670       13.6689437085
  H        19.8456742616       16.4378106399       14.6276032235
  C        21.6413375399       17.1107333959       15.4772677240
  S        12.3750182609        9.2094427536       20.6022350896
  C        12.8379612238        6.6358041819       21.0340563565
  H        18.3103075511       16.5450176501       -6.2202992521
  H        18.8434616252       18.1985799317       -6.4630385795
  H        18.0249735478       17.9766854755       -5.1567128486
  H         6.2389050719       12.7181366926        9.9165508191
  H         5.4250601668       14.1656546977       10.1644974388
  H         5.7672339276       13.7230072650        8.4911680525
  H        21.0282399785       17.6711929597       16.1933947998
  H        22.0297323496       16.2034975198       15.8824894485
  H        22.4487688219       17.8022642170       15.2558977651
  C        12.2378321031        8.4268247808       22.1996789963
  N        12.3735901102        7.1000580917       22.2408395085
  O        13.2379523223        5.5158611582       20.8245961839
  S        11.4740596252        9.0731016124       23.6899522390
  C        12.4081312915        6.3187049342       23.4769423488
  H        12.4664223004        5.2107139032       23.2492008851
  H        11.4192709943        6.3645602350       23.9777873376
  C        13.6689454284        6.5443576280       24.3049586133
  H        14.0370379424        7.5581511690       24.2064808986
  H        14.3688078117        5.9064080811       23.7245282589
  H        13.7501037225        6.3249225318       25.3635162037
