352
 i =    48300, time =    48300.000, E =        24.8803148322
  H        11.2260262975        7.5074484749       32.3050688969
  C        11.1299010693        6.4162884450       32.2877408453
  H        12.0417209530        5.9170547170       31.9031455048
  C         9.9636162944        6.0642019307       31.3109923762
  C        10.8636854407        5.8514001500       33.7000745435
  C        10.3234103482        6.3348824159       29.8000283340
  H         9.8131417333        5.0188517564       31.4620445765
  H         8.9729823683        6.5092131726       31.6028076138
  H        11.6469491211        5.9998477083       34.4038348464
  H         9.9354697974        6.1355983310       34.0366797369
  H        10.8068379510        4.7704078550       33.6881661631
  C         9.5613663453        5.5879507479       28.6928465937
  H        11.3654455711        6.0335940861       29.7028498654
  H        10.3721765409        7.3897141688       29.6787533697
  C        10.1481003874        5.4397657120       27.3052632783
  H         9.3492073777        4.6186239250       29.0711503818
  H         8.6030148888        6.0711374526       28.5716378154
  C         9.1278784350        4.8677702455       26.3152911880
  H        10.8233615512        4.5366982484       27.5218602249
  H        10.7801050598        6.3466991021       27.0084340688
  C         7.9986134253        5.7339615360       25.8367079539
  H         9.7115701663        4.4738518587       25.5047742262
  H         8.7048857044        4.0298461897       26.8504640605
  C         6.7932062571        4.9533371589       25.1677149201
  H         7.5752898606        6.2223333145       26.7048170080
  H         8.3550274487        6.5757966212       25.2428080000
  C         6.4470631742        3.6373153774       25.8232760804
  C         7.3535002733        4.2181714585       23.9987983505
  C         5.5220190381        5.8492285517       24.9691582524
  C         6.8963658714        2.5415018167       25.0894631942
  C         5.8192059817        3.2607189405       27.0188097745
  C         7.4533308570        2.9105304906       23.9366118942
  C         7.9998228537        4.9065822212       22.9952521491
  H         5.7066364995        6.8214564384       24.5070434241
  H         5.3321530767        6.0177203317       26.0152093147
  C         4.2866501959        5.1472944086       24.4697683114
  S         6.7261349918        1.1464632240       25.9610136702
  C         5.9006472591        1.9397803597       27.2639807118
  H         5.4945473406        3.9928589625       27.6981071395
  C         7.8126108603        2.2498512621       22.8355092469
  H         7.8978593106        5.9682204533       23.1474311209
  C         8.4239226407        4.3485715548       21.8403200832
  H         4.5397439950        4.9057029916       23.5055428785
  H         4.0410229041        4.1097140041       24.8946036862
  C         2.9959045633        6.0427521217       24.3219287943
  C         5.6812801090        1.3479998884       28.6119944801
  C         8.3890219148        2.9681551648       21.6961226696
  H         7.8820351088        1.1453789425       22.7007517250
  C         8.8854820410        4.7049691418       20.6341203885
  H         2.1786383873        5.4895186671       23.8443253569
  H         3.1664138881        6.9512714493       23.7647175754
  C         2.5475616275        6.3970170335       25.7339464310
  C         5.6797064594       -0.0379173343       28.8749573227
  C         5.4959631868        2.2733803659       29.8149848376
  C         8.8697978597        2.2586208473       20.4293892077
  C         9.1912629880        3.6310747444       19.8081378734
  S         9.0927323953        6.1894614109       19.8476144109
  H         1.6617279791        7.0978490380       25.7021796051
  H         3.3775939204        6.8368490362       26.2675176406
  C         2.2328849340        5.1888521583       26.6487480552
  N         5.9290214514       -1.0281938295       27.9302961519
  C         5.6143534303       -0.5705258323       30.1849498446
  C         5.3207758762        1.7786933727       31.0689892627
  H         5.1988453270        3.2737903544       29.6597552393
  C         7.7016973376        1.5085060594       19.6401970287
  C        10.0872129790        1.3617472631       20.6177278573
  C         9.6452314238        4.0670189978       18.5442656370
  C         9.6970498797        5.4257141073       18.4047462161
  H         1.6240943994        4.5689877080       26.0006780427
  H         3.0496389176        4.5279218464       26.9825019845
  C         1.3734119796        5.6155894123       27.7824753638
  S         6.0525547561       -2.4522981231       28.6615818257
  N         5.8253777950       -1.9669822947       30.1918947072
  C         5.3770314448        0.2951232913       31.3212305135
  H         4.9757327814        2.3990828850       31.8079800796
  H         7.3631042387        0.6841044389       20.2090811903
  H         8.0816664382        1.1080674836       18.7268960916
  C         6.5075433085        2.3698872822       19.3943835401
  H        10.1832072509        0.6880845052       19.7348534082
  H         9.8560505176        0.6469407632       21.4725624976
  C        11.4285405859        2.0593229380       20.9291964348
  H        10.0361156177        3.3350396975       17.9403454828
  C        10.0714902447        6.1546333440       17.1494413108
  H         0.7695002091        4.7776906034       28.1848755635
  H         0.6732883588        6.4091358561       27.5792113553
  C         2.2772807408        6.1104356306       28.9072247026
  C         5.1475346852       -0.2833004574       32.6205624634
  H         6.7615987890        3.0686700334       18.6298881988
  H         6.2688507927        2.9354586382       20.2331212802
  C         5.3958073899        1.6238544256       18.6097948652
  H        11.2229400125        2.4507086633       21.9224716363
  H        11.6147579385        2.7900306769       20.1308541157
  C        12.6152478164        1.1054915890       20.9075358666
  C        10.0927235894        7.5784569761       16.9794562333
  C        10.4382078969        5.3342031465       15.8728449494
  H         3.1939741096        5.4542604080       28.8178869980
  H         2.6504099499        7.1001284237       28.5566353813
  C         1.7357068399        6.3358460785       30.2809405120
  H         5.1283870750       -1.3508951184       32.4955465640
  C         4.8191733502        0.1669693112       33.8986327912
  H         4.9829044652        0.9226292033       19.3104257078
  H         5.7863194776        1.1743631264       17.7831758716
  C         4.2159854381        2.5000041817       18.0353713371
  H        12.7556388651        0.8561000785       21.9244992744
  H        12.3460871740        0.2410976810       20.3168444816
  C        13.9036080268        1.6846499628       20.4004130921
  N         9.7198793490        8.5288708564       17.9906125488
  C        10.3677013887        8.1965689523       15.7881227646
  C        10.7642722409        6.0444446941       14.7395225939
  H        10.3718390193        4.2771158072       15.9350359977
  H         1.3010365238        5.4961641297       30.7770061322
  H         2.4782350687        6.9048425548       30.8285184357
  H         0.9961889107        7.0898626014       30.1030261024
  S         4.5127125872        1.7972836898       34.2938878078
  C         4.5305946827       -0.8184625094       34.9964303191
  H         4.0375184842        3.3384325724       18.7151328550
  H         4.6266864228        2.9284904156       17.1311594928
  C         2.9206841489        1.7437688875       17.7324179529
  H        13.6269960607        2.3235245552       19.5443319964
  H        14.4470794615        0.8198506875       19.9793278647
  C        14.6740695680        2.4361132065       21.4453024399
  S         9.6519265837       10.0252767191       17.2854377622
  N        10.2523823130        9.5726395639       15.8574287069
  C        10.7786799049        7.4967748504       14.6551461327
  H        11.0970833228        5.5278858520       13.8895597639
  C         4.2303790192        1.2747342818       35.9648754589
  N         4.2397986080       -0.0851725667       36.0978579147
  O         4.6095793012       -2.0411881805       34.8307983452
  H         2.3873513479        2.1459050948       16.8425107325
  H         2.2099414046        1.9783880968       18.4939942263
  C         3.0613517113        0.2245527956       17.6780313365
  H        15.2976932353        3.0929818883       20.9100649363
  H        13.9636847346        2.9216157641       22.0930227562
  C        15.6073665857        1.4320629391       22.1279577588
  C        11.0450787025        8.2678665546       13.4862548161
  S         3.6253894255        2.3706423561       37.1528229048
  C         4.1790700769       -0.6761742985       37.4353627788
  H         3.9143970267       -0.2000057981       17.0220949850
  H         3.2491632211       -0.1468498894       18.6955066406
  C         1.7886301259       -0.5696375497       17.2712974598
  H        16.1381189650        0.8569521515       21.3731085452
  H        14.9919683246        0.7373094491       22.6816757646
  C        16.6095346244        1.9586812840       23.1490057494
  H        10.6193360662        9.3136635007       13.5023771901
  C        11.6684850425        7.9676226660       12.3101474367
  H         3.5214725379       -0.2595404208       38.2218324911
  H         3.6712888173       -1.6629103834       37.1881379514
  C         5.5422374335       -0.8469176568       38.0176254370
  H         1.3653208364       -0.1993036408       16.3808429348
  H         1.0341811937       -0.4745315759       18.0506024139
  C         1.9712026146       -2.0997504959       17.0829073249
  H        16.2607658311        2.9275141440       23.4875283705
  H        16.7107331315        1.2987948583       24.0598962639
  C        18.0699935749        2.0680565047       22.5462846572
  S        12.2927850269        6.4133040665       11.8466181453
  C        11.6760827532        8.9946733040       11.2582030252
  H         5.4385587708       -0.9917691799       39.0802807873
  H         6.0378276763       -1.7526283590       37.5714927279
  H         6.2657488223       -0.1192040647       37.7855703280
  H         1.3992213673       -2.6182999932       17.8179762800
  H         3.0507784110       -2.3906411905       17.1294854362
  H         1.7513278581       -2.2457000995       16.0364332623
  H        18.3790174608        1.3578444725       21.7225415843
  H        18.7989622892        1.7430801168       23.2124697618
  H        18.2757114723        3.0970233782       22.2341795977
  C        12.5043614902        7.1408637825       10.2754059598
  N        12.2501604310        8.4789493931       10.1586849014
  O        11.0720058091       10.0440336168       11.2545951054
  S        13.0682346424        6.2480833293        8.8041393301
  C        12.4798266901        9.2263677906        8.9481120757
  H        12.7096400868       10.2140915393        9.2193971612
  H        13.3762788780        8.8499813015        8.4880055617
  C        11.1972972636        9.2380112098        8.0661985993
  H        10.4952780972        8.3676554913        8.2140909340
  H        10.5342799503       10.1335213855        8.3434780153
  H        11.4262111240        9.2316284171        6.9668825132
  H        23.3201437634       11.2779202593        3.8210457990
  C        22.4205662163       10.6901183160        3.5452789622
  H        21.5305779128       11.3600066358        3.4897599000
  C        22.0978911073        9.6184775001        4.6884945303
  C        22.6000048049       10.1441777911        2.1032757908
  C        21.2580324583       10.2076057995        5.8363064817
  H        21.5815800896        8.7977682690        4.2973519621
  H        23.0251053922        9.2355859043        5.1667713327
  H        22.4021160731       10.8738957075        1.3008117515
  H        21.9642523022        9.2473093327        1.9322020984
  H        23.5862420528        9.7412375437        1.8989852899
  C        20.8766403938        9.1966599298        6.9373130666
  H        21.8302506475       11.0635327884        6.2691241250
  H        20.3730999239       10.4514142956        5.3026197565
  C        20.1535491751        9.8822366758        8.1093017714
  H        21.8031530538        8.6924358930        7.2667560265
  H        20.3144833376        8.3718808949        6.6212433423
  C        18.9897880884       10.7019205729        7.6782350401
  H        20.8253794306       10.5453441937        8.5792995278
  H        19.8708445327        9.1779677815        8.8224699056
  C        17.8471538386        9.7839395892        7.2388803036
  H        18.6495746264       11.3336083752        8.4320681013
  H        19.3221710044       11.4275270740        6.9050830507
  C        16.5947263308       10.5399936364        6.8752632826
  H        17.5794655179        9.0671943110        8.0315703165
  H        18.0549137851        9.1965079631        6.3916745386
  C        16.9197544168       11.8603034048        6.1802576953
  C        16.1393064154       11.2830321291        8.0901272301
  C        15.4739059294        9.7412298747        6.1013667132
  C        16.7746974205       12.9612706328        6.9847594673
  C        17.4855072411       12.1886739000        4.9298811220
  C        16.1756554105       12.6316384204        8.1750826422
  C        15.6840292635       10.6302664672        9.2371617223
  H        15.8921464333        9.0141215682        5.3644337935
  H        14.8446889801        9.0866872895        6.7394942206
  C        14.4691875686       10.7492981089        5.4585876469
  S        17.3041143219       14.3918316105        6.0971800563
  C        17.6533202887       13.5005060826        4.6642125444
  H        17.5703961041       11.4193217237        4.2154906847
  C        15.7409510815       13.2441968375        9.3260531098
  H        15.7705746747        9.5380230667        9.1980762216
  C        15.3785455285       11.2401045871       10.4254148919
  H        14.8711476082       11.4222492203        4.6346186738
  H        13.9591097369       11.2467318972        6.2475342587
  C        13.4052583769       10.0240059737        4.6189481766
  C        18.0378708050       14.2493440009        3.3798807167
  C        15.3622336857       12.5934459647       10.4899675970
  H        15.8248959803       14.2822128455        9.3707328555
  C        15.0734198280       10.8963524935       11.6559261267
  H        12.5778879460       10.7555385656        4.5173756707
  H        12.8683783425        9.2821349706        5.2163749966
  C        13.9115984930        9.3974456400        3.3058034194
  C        18.1048369980       15.6804664163        3.1717752126
  C        18.3835838137       13.3639086353        2.2542383115
  C        14.9839979690       13.3365186565       11.7350694522
  C        14.7416562718       11.9580689256       12.4472711903
  S        14.8202079943        9.3858577488       12.4804642885
  H        13.4699413569        8.4305405532        2.9034191220
  H        14.9873925235        9.1297135426        3.3517027187
  C        13.6103070421       10.3415406947        2.0481901774
  N        17.9252400909       16.7285294225        4.1188879279
  C        18.3482727298       16.1796061217        1.9180351488
  C        18.6366078866       13.8630132262        1.0109376541
  H        18.4528668371       12.3025098436        2.4199148518
  C        13.5401621613       13.9539077825       11.5920756090
  C        16.0214004365       14.2112825101       12.4859243457
  C        14.2516262308       11.5480557554       13.7301306398
  C        14.2702421218       10.1964193808       13.8915634616
  H        12.8107436967       11.0531246404        2.3130430371
  H        14.4601892542       10.8751290704        1.6470106846
  C        13.2681549940        9.5186732924        0.8231584988
  S        18.1138863229       18.1666482803        3.3597643667
  N        18.4109342158       17.5602827799        1.8728656625
  C        18.6012541269       15.3217472635        0.7707367204
  H        18.7863173013       13.2032684442        0.1960905278
  H        13.6584558629       14.6270207466       10.7412416026
  H        13.2494529231       14.5261278835       12.4551077850
  C        12.4823027558       13.0264768577       11.1817703922
  H        16.1120491301       15.1548249040       11.9975404622
  H        15.7982675529       14.5017182475       13.5417558665
  C        17.3767197179       13.4985910640       12.6014239502
  H        13.8528667401       12.3213738361       14.4679743024
  C        13.9335688577        9.4367607503       15.1508274316
  H        12.4274633554        8.8497434884        0.9491274947
  H        14.2196856659        8.9987349808        0.6278126528
  C        13.0829208257       10.5063917458       -0.3284958703
  C        18.8479533938       15.9238894200       -0.5398333899
  H        12.7535834330       12.2455121573       10.5047607458
  H        12.0186502844       12.5784075649       12.0254671969
  C        11.3429966277       13.8780657236       10.6634812420
  H        17.7196817660       12.9851733455       11.7093403325
  H        17.2046515037       12.6328851054       13.2278940238
  C        18.4706673785       14.4307295283       13.1372210623
  C        14.0135512675        8.0266087108       15.2976443994
  C        13.4812230614       10.1372600668       16.3282417415
  H        13.2555810399       11.5192103735       -0.0453915033
  H        13.8442388781       10.2861509734       -1.0007800495
  C        11.7475960997       10.4023274982       -0.8928506999
  H        18.5940454974       16.9746073680       -0.5689539623
  C        19.3261089378       15.4154916238       -1.7395122846
  H        11.7057141951       14.5103685996        9.7964395531
  H        10.9811275616       14.6031674398       11.4227178945
  C        10.1803573972       13.0217820369       10.0979756396
  H        18.8492943476       15.0634355970       12.3127134368
  H        17.9535054189       15.0372956773       13.8458144232
  C        19.4537553135       13.6385915492       13.9308646571
  N        14.3487419202        7.0983993047       14.2754443074
  C        13.6730237138        7.3872597217       16.4592582254
  C        13.2162453205        9.5202905579       17.5549493184
  H        13.5651347703       11.2053908999       16.3347723317
  H        11.0409383324       10.8734533052       -0.1596810135
  H        11.5058140659        9.3410021458       -0.9908354205
  H        11.7307152795       10.7844975068       -1.9471211894
  S        19.7847807751       13.8477424529       -2.0389273990
  C        19.2557495791       16.2582955428       -2.9067409377
  H        10.5112273949       12.6289118313        9.1783750698
  H         9.8104840507       12.1373040771       10.7028846485
  C         9.0311765515       13.8775991467        9.7434921517
  H        19.3034834478       12.5745620284       13.5872746399
  H        19.0364122585       13.5636822849       14.9689864723
  C        20.8504806852       14.1431562800       13.8088128518
  S        14.1435697151        5.5926838704       14.8694119056
  N        13.5416192259        6.0053792023       16.2831890072
  C        13.2730235038        8.0261518357       17.6181308298
  H        12.9744456875       10.0815708133       18.4106357528
  C        19.8489875037       14.2401913224       -3.7143208158
  N        19.4111869647       15.4795904684       -4.0254409165
  O        18.9382700793       17.4176458341       -2.8533292651
  H         8.5573307115       14.4475207305       10.5828018354
  H         9.4190954532       14.6287754147        9.0341610040
  C         7.9697299390       13.0022206376        9.0672614878
  H        21.5520074927       13.3831360576       14.2288559726
  H        21.2335134409       14.0483837105       12.8053664421
  C        21.0296427170       15.4912450137       14.5665240022
  C        12.9738971774        7.2663455659       18.8114055355
  S        20.2515322617       13.2083046655       -5.0543882917
  C        19.2524978151       15.9188521285       -5.3658567908
  H         8.3786756843       12.4058860233        8.2820643355
  H         7.4261167819       12.2751943633        9.6556138086
  C         6.8778217429       13.8487283493        8.5151188245
  H        21.1153701120       15.3429971855       15.6968717568
  H        20.0335667454       15.9459856941       14.6195265424
  C        22.0878679603       16.3890932414       13.9594992507
  H        13.3110961360        6.2513174122       18.5721479926
  C        12.5304014361        7.5816118371       20.1083461531
  H        18.8060268399       15.1429155327       -6.0340895589
  H        20.1827173083       16.1604645224       -5.8035155848
  C        18.3343158923       17.0842698876       -5.6733123720
  H         6.6869409321       13.3778492067        7.5527174776
  H         7.2683798690       14.8369778011        8.2560219923
  C         5.6101353909       13.9486891969        9.3110049108
  H        23.0197142189       15.8066552528       13.9507584361
  H        21.9809501275       16.6372193538       12.9287703878
  C        22.3462480013       17.7460235924       14.6873500435
  S        12.1438265999        9.1034953770       20.8632869366
  C        12.4554599943        6.3702632145       21.0216043373
  H        17.9210019113       16.9333127394       -6.6678481489
  H        18.8250426624       18.0613320656       -5.4325451768
  H        17.4563604101       16.9633514565       -4.9910417167
  H         4.8725713002       14.4141961410        8.6407283205
  H         5.2789457289       12.8837751445        9.5066848024
  H         5.7286754583       14.6118155909       10.1640983806
  H        21.4133474512       18.2707353519       15.0235039249
  H        22.9538793413       17.6834350676       15.6281698120
  H        22.8643420339       18.3653397986       13.9217869577
  C        12.0471985064        8.1647763982       22.3815380653
  N        12.1550950536        6.8110902292       22.2775350064
  O        12.6523192473        5.2326951216       20.7258699299
  S        11.4317061674        8.7718019351       23.8915977994
  C        12.0706328388        5.9526413645       23.3879509940
  H        12.0560179292        4.8811193033       23.0573030083
  H        11.1397989366        5.9356229963       23.9382864324
  C        13.2872349182        6.0612653715       24.2819549793
  H        14.0933560346        5.3303924586       24.0374280196
  H        13.0592672483        5.8567962564       25.2798377652
  H        13.7999903588        7.0328157651       24.3222910099
