352
 i =    14900, time =    14900.000, E =        24.5266958756
  H        11.8465383216        6.7804312795       31.8861435446
  C        11.6073253881        5.7678882939       32.2674799179
  H        12.5743993969        5.1983191535       32.3729651341
  C        10.7015336135        5.3514587454       31.0921361390
  C        10.9047605847        5.6351633589       33.6452553118
  C        11.3923185019        5.5281845844       29.6712517197
  H        10.5359427315        4.2999900775       31.1653111792
  H         9.7345479151        5.9863475703       31.0605779407
  H        11.1589146677        6.5233973794       34.2121768704
  H         9.8583107976        5.4206458665       33.5368559590
  H        11.3070788689        4.8287563594       34.2959459212
  C        10.4554470877        4.8304435508       28.6915974252
  H        12.3834106983        5.0879328423       29.5640656509
  H        11.4756578779        6.5856938936       29.4662953045
  C        10.7108187709        5.2513065803       27.2094951885
  H        10.6039665351        3.7474276761       28.8216218621
  H         9.4496133327        4.8971074626       29.1432261842
  C         9.5499379304        4.7467123435       26.3308407207
  H        11.6542485600        4.7637107255       26.9375780761
  H        10.9634852881        6.3045519097       27.1683746512
  C         8.4013074336        5.7114584149       26.0219077393
  H        10.0994792744        4.6098024339       25.3656724780
  H         9.1383963413        3.8543647100       26.7950346602
  C         7.2189324573        4.9019523604       25.3658411628
  H         8.1963382522        6.2551508623       26.9693747856
  H         8.7051571704        6.4851485068       25.2937790633
  C         6.8950853717        3.5623038257       26.0794554571
  C         7.6357732572        4.0906849046       24.1825634457
  C         5.8716728783        5.7350496155       25.2878301456
  C         7.1697457322        2.4452204659       25.3372918040
  C         6.3459706728        3.2509710032       27.3371566723
  C         7.6893291211        2.7389666192       24.1460461974
  C         8.1684144535        4.7397003474       23.0782557132
  H         5.9269499261        6.4036835908       24.3888581673
  H         5.6935808493        6.2362855482       26.2558269022
  C         4.6321529336        4.9301334846       24.8919727211
  S         6.8923607255        0.9585918031       26.1666693298
  C         6.3204045991        1.9124158188       27.5330275490
  H         6.0979634287        4.0629628325       27.9230349551
  C         8.1801345496        2.1378661288       22.9968660390
  H         8.0940895725        5.7941711767       23.0588183884
  C         8.5583617350        4.1858487931       21.9454957075
  H         4.8087346675        4.6756694349       23.7848908555
  H         4.5927143352        4.0532018164       25.5182196995
  C         3.2163585453        5.6709944475       24.8927812337
  C         6.0041924252        1.2296560635       28.7722520708
  C         8.6024092356        2.8587653446       21.8274692108
  H         8.2076664375        1.0704326658       22.8368572624
  C         9.0659689550        4.5615424433       20.6978465235
  H         2.6394122590        5.2352220833       24.1763776274
  H         3.3332378255        6.6793581755       24.5142535578
  C         2.6844557685        5.9821437008       26.2515909964
  C         5.9389232051       -0.0941776842       29.0492967890
  C         5.6924458626        2.2328759856       29.8788518601
  C         8.9806303563        2.1932677127       20.5682800074
  C         9.2148770672        3.5174708160       19.7870912593
  S         9.3538690233        6.1072914840       19.9744161053
  H         1.9308347279        6.7957987416       26.1668610924
  H         3.4342103899        6.3445329210       26.9393255927
  C         2.0865997344        4.7061843838       26.8266487341
  N         6.1022466226       -1.1407345091       28.1492000969
  C         5.5915205627       -0.5396849360       30.3153131360
  C         5.2018954597        1.7505885203       31.0961932845
  H         5.6818993402        3.2733004881       29.7739696607
  C         7.7754970808        1.4276301738       19.9609142513
  C        10.2709160592        1.3674959099       20.7944614342
  C         9.5866586819        3.9470992827       18.4796909055
  C         9.7287513765        5.3238965272       18.4302631737
  H         1.4581652684        4.2611497323       26.0266651741
  H         2.8112155364        3.9725665783       27.1603983692
  C         1.1964957205        4.9145365392       28.1439310759
  S         5.9962981332       -2.5118249506       28.9731107585
  N         5.6410097775       -1.9213448844       30.4229818225
  C         5.1820783073        0.2411740888       31.4022331253
  H         5.0083832378        2.4679090236       31.9017145523
  H         7.3564272817        0.8664875279       20.8217398423
  H         8.0717594016        0.7164684191       19.1890894416
  C         6.7019961489        2.2691598638       19.2968098659
  H        10.5182979035        0.8013629808       19.9392735158
  H        10.1762141538        0.6287462257       21.5304330267
  C        11.5158720165        2.0784686476       21.1473969626
  H         9.8168975742        3.1956813533       17.7518449507
  C        10.0136826222        6.1001461335       17.2114734792
  H         0.7244124255        3.9216315920       28.5306495753
  H         0.4773519370        5.6599183017       27.9272307016
  C         2.0250835275        5.6255856910       29.2486255281
  C         4.9690889196       -0.3664591707       32.6443490400
  H         7.1025480710        2.9308002775       18.5721528456
  H         6.3377207945        2.9531430629       20.0294690380
  C         5.5618097532        1.4136773643       18.6355591604
  H        11.4749144722        2.3315946935       22.1875950235
  H        11.5058767844        2.9806021882       20.5401563793
  C        12.7735069830        1.3118516627       20.6549451452
  C        10.0270126942        7.4786523450       17.1064317744
  C        10.2074469885        5.3793434352       15.9732010788
  H         2.9153877584        5.0422591431       29.3072847725
  H         2.3113989643        6.5327110671       28.8860693832
  C         1.2637873176        5.6204182301       30.5677390464
  H         5.0514173166       -1.4502855662       32.5714781154
  C         4.7250069579        0.1237473726       33.9513717743
  H         5.0820593315        0.7159152770       19.3687189201
  H         6.0071001033        0.9507316103       17.7760319003
  C         4.4040510713        2.3390690885       18.0717037294
  H        12.8281723835        0.3196042019       21.0754933229
  H        12.6095124654        1.2386102396       19.5523651876
  C        13.9541021841        2.2069785682       20.9273905471
  N         9.8404037826        8.4084258064       18.1829180308
  C        10.3125963758        8.1733575049       15.9466580083
  C        10.5039184791        6.0418414817       14.7840539587
  H        10.1508449505        4.3742565836       15.9365808849
  H         0.2392334127        6.0524763876       30.5526941939
  H         1.0673808893        4.5663634634       30.7483397717
  H         1.7681183646        6.0286088055       31.4492141103
  S         4.4119541997        1.7618504020       34.4165827760
  C         4.7496438449       -0.8557549599       35.0777523012
  H         4.5373692528        3.2557977056       18.5601287759
  H         4.6439925540        2.4276495625       16.9923477217
  C         2.9932240723        1.8134233060       18.3636135350
  H        13.8787970803        3.1480809378       20.3764804853
  H        14.7806130019        1.6536613390       20.5514313952
  C        14.3070831177        2.4861155300       22.3821552176
  S         9.9167620275        9.9548577065       17.6189638531
  N        10.2359927544        9.5534820025       16.0800244780
  C        10.7217133305        7.5192035377       14.7584090288
  H        10.5415808918        5.4486427907       13.8971917151
  C         4.3507067354        1.1260615235       36.0394450689
  N         4.3295510510       -0.2057246080       36.1449702432
  O         4.8275612418       -2.0636353965       34.8967985090
  H         2.2523518618        2.5288451106       18.0986629582
  H         2.8215242430        1.6034677394       19.4112810718
  C         2.7757016926        0.7143917226       17.3359203095
  H        14.7219078412        3.4981828420       22.4252964992
  H        13.3761048149        2.5161304254       22.9813319711
  C        15.3304870465        1.4904522398       22.9761594621
  C        11.1445787542        8.2548322962       13.5947465526
  S         3.6766863641        1.9978740859       37.3837455464
  C         4.2136092373       -0.8831555269       37.4054003812
  H         2.1359168330        1.2129922411       16.5719133472
  H         3.6648791903        0.4604665960       16.7705032187
  C         2.2813044543       -0.5994917830       17.9115368577
  H        15.4027291618        0.6669770496       22.3404940711
  H        14.8680715575        1.1246333838       23.8799295461
  C        16.7464212445        2.0668237087       23.2130757841
  H        11.0926824093        9.2827724114       13.6996018051
  C        11.5535169227        7.8144081277       12.3717868507
  H         3.4078462438       -0.5296409702       38.0183130858
  H         3.9962169992       -1.9605594095       37.2916673935
  C         5.5603819081       -0.8291055299       38.0300234228
  H         1.2363498413       -0.4699716649       18.3811884165
  H         2.8864728945       -0.7670352846       18.8136364117
  C         2.2389669468       -1.8261419006       16.9908928222
  H        16.6670316760        2.9359266036       23.8334288645
  H        17.4884030349        1.3342450470       23.7165118637
  C        17.4586755184        2.3052123701       21.8302567587
  S        11.9874405722        6.2735874727       11.8493851669
  C        11.6467370761        8.8715807800       11.3613004631
  H         5.6370541014       -1.6241224843       38.7984850120
  H         6.3631707721       -1.1112000696       37.3613108689
  H         5.6822580932        0.1779993427       38.4287729145
  H         2.9746872382       -2.5228830635       17.3782504620
  H         2.4201365842       -1.6138780183       15.9769739628
  H         1.2508146882       -2.3160851801       16.9568360131
  H        18.3978282293        2.9088182509       21.9914802969
  H        16.8496015985        2.7873988575       21.0514002736
  H        17.7633782299        1.3747039052       21.4225235951
  C        12.4469082991        7.0181931743       10.3205197927
  N        12.2052590963        8.3298601847       10.2332021871
  O        11.2976514537       10.0477081098       11.5326825346
  S        12.9457218973        6.1487646855        8.8550389917
  C        12.3716973872        9.0855298240        9.0383960974
  H        12.7304000453       10.1225670712        9.2657090364
  H        13.2289453819        8.7239623597        8.4850061788
  C        11.1279277956        9.1490813269        8.0986153504
  H        10.2662565916        9.3772082064        8.7520465537
  H        11.2297471379        9.8943379592        7.2816039833
  H        10.8391733585        8.2149392278        7.6414097606
  H        20.3181371654       11.4750954021        3.7283597918
  C        20.7554105558       10.4904743152        3.5188143106
  H        19.8983284495        9.7511591230        3.6766348701
  C        22.0392308908       10.4598823340        4.3405511473
  C        20.8896034974       10.4153970168        2.0623747558
  C        21.8725188192       10.6777942934        5.8305521501
  H        22.6079700543        9.5347293503        4.0853846094
  H        22.7212148488       11.2087088248        3.9655697664
  H        20.5270525395       11.2547352549        1.4788257121
  H        20.4133550927        9.5210026260        1.7033916802
  H        21.9714470360       10.3413733003        1.8884423585
  C        21.2279158655        9.4731333696        6.5305892451
  H        22.8762254302       10.7885596084        6.2821550843
  H        21.2128505371       11.5167977703        6.0285040607
  C        20.5323750825        9.6032662788        7.8895150081
  H        22.0437005714        8.7810774427        6.7758067576
  H        20.6287196572        8.8855382961        5.7930925320
  C        19.2372453083       10.4109169532        7.8358742811
  H        21.2131075332       10.0143155192        8.6441405411
  H        20.3562993340        8.5874002540        8.2262610756
  C        17.9972792874        9.6750045941        7.2475949170
  H        19.0350979467       10.8418757934        8.8234648680
  H        19.3594769288       11.3547871473        7.2947788110
  C        16.7424585075       10.5011626468        7.0869420842
  H        17.7159902174        8.7338649556        7.7603164576
  H        18.3295733828        9.3331835418        6.2520848739
  C        17.0235975586       11.8847329659        6.3715477204
  C        16.2664060238       11.2228797204        8.2967652123
  C        15.5176550062        9.7208549840        6.4418068522
  C        16.7718729804       12.9775405024        7.1433648719
  C        17.6884256188       12.3721952332        5.2405722443
  C        16.2941069524       12.5404244380        8.4152015954
  C        16.0090304595       10.5211455324        9.4205152748
  H        15.9640225398        9.3820520644        5.5584479339
  H        15.1802051315        8.8074873132        6.9856683616
  C        14.2225142639       10.5601582689        6.1557790632
  S        17.1543906550       14.4937344287        6.4374004079
  C        17.6133309309       13.7302404078        5.0190649462
  H        17.9998985340       11.6692750491        4.5199608534
  C        15.9673727605       13.1443712426        9.5996691048
  H        15.9175327151        9.4708794901        9.3136547258
  C        15.6626505658       11.1288694091       10.6113241757
  H        14.5567425361       11.5841719410        5.8331292610
  H        13.6682532675       10.8407351948        7.1382421583
  C        13.3115231064        9.8631573110        5.1232746802
  C        18.0905367881       14.4301249895        3.7566971591
  C        15.5849699341       12.4632094229       10.7584535684
  H        15.8722257074       14.1800350124        9.6468241327
  C        15.1950540117       10.7327769206       11.8414574466
  H        12.4112526342       10.4191804757        5.0019771585
  H        13.1640277517        8.9068902822        5.5165225274
  C        13.9706159231        9.7467920522        3.7187696558
  C        18.0472657923       15.8070217500        3.5349078125
  C        18.6384230606       13.5660299765        2.6534645277
  C        15.1775948217       13.2079247041       12.0034274866
  C        15.0451590346       11.8145190566       12.7147017297
  S        14.8416254175        9.2066305429       12.4729383729
  H        14.6959506869        8.8912893075        3.6996644371
  H        14.4541187922       10.6688993156        3.4817467909
  C        12.8625730294        9.6350226032        2.6672867610
  N        17.6361440528       16.7141098864        4.4899654673
  C        18.3610709446       16.3765450686        2.3440049242
  C        18.9864348217       14.0907929471        1.3845133354
  H        18.7206065691       12.5425826909        2.7242249556
  C        13.8785691651       14.0273102422       11.7704183241
  C        16.3527440011       13.9976478184       12.5722051344
  C        14.8575125596       11.3547817537       14.0081292205
  C        14.6473306923        9.9832287431       14.0495235266
  H        12.5077524818        8.6064155054        2.5342720596
  H        12.0407330261       10.1675802121        3.0028166035
  C        13.3902089277       10.0817356238        1.3439504216
  S        17.5526671863       18.1702477443        3.8335341196
  N        18.1229770284       17.7996678721        2.4081838473
  C        18.7634859830       15.5844163128        1.2107253102
  H        19.1249191697       13.3629851184        0.5893161986
  H        14.1493596443       14.9329265080       11.1418898852
  H        13.5382431594       14.3698189833       12.7572148889
  C        12.7687496807       13.2077861559       11.0065717553
  H        16.7234417738       14.8537734276       12.0034237266
  H        15.9549170651       14.3380818953       13.5604664125
  C        17.6073811233       13.0960207784       12.7597668663
  H        14.9180922438       12.1231445025       14.7702953485
  C        14.3073348018        9.2388106074       15.2617598063
  H        14.3386794084        9.5704822851        1.1449714828
  H        13.6730514218       11.0886386686        1.4749524159
  C        12.3961135626        9.9082919381        0.2088985137
  C        18.9204006495       16.2329307919       -0.0180287794
  H        13.1696209866       12.9632321910        9.9965300313
  H        12.4795524153       12.2735543660       11.5377618755
  C        11.4790228402       14.0382893486       10.9535003635
  H        18.2529466301       13.1011703986       11.8829228951
  H        17.5275640413       12.0269426230       12.8554048026
  C        18.3566684631       13.6008860577       14.0303227556
  C        14.0245584548        7.8454939790       15.3651409164
  C        14.2492211861       10.0511529367       16.5178316082
  H        12.0748597517        8.9121161794        0.1383913667
  H        11.4896623366       10.4945666986        0.4077241689
  C        12.9736568543       10.4260128072       -1.1336625976
  H        18.5801888329       17.2509249578        0.0847658920
  C        19.2347070500       15.7785739958       -1.3182164556
  H        11.6861500521       14.9080328901       10.2924927038
  H        11.1569377612       14.3148704636       11.9881922228
  C        10.3083018054       13.3294781433       10.3307335155
  H        18.1159486197       14.6433568461       14.0417909163
  H        18.0280793681       13.0613137912       14.9769993687
  C        19.8966292193       13.4727981776       13.9166413862
  N        14.1573894283        6.9108533150       14.3531015821
  C        13.6887972867        7.2600532340       16.5961339552
  C        13.8010452504        9.4378664946       17.7090772649
  H        14.4932982611       11.0769771343       16.5457859828
  H        12.2187332108       10.4420861884       -1.9626376044
  H        13.8874989163        9.9489525999       -1.4829046526
  H        13.2794257123       11.4862689044       -1.0328117928
  S        19.5896674426       14.1231412356       -1.8177732726
  C        19.2274407792       16.7139876479       -2.4624524440
  H        10.8182604975       12.5880089158        9.7353668492
  H         9.6935005331       12.7313888141       10.9457991511
  C         9.3258181394       14.2598128116        9.5555049202
  H        20.1642567760       13.4003539350       12.8725328598
  H        20.2275369062       12.5253864619       14.3204616537
  C        20.7052578792       14.6496574719       14.6065080036
  S        13.9135717346        5.4146821667       14.9784253885
  N        13.5298807348        5.8425309155       16.5353675319
  C        13.5022414025        7.9592188585       17.8137817968
  H        13.7808828527        9.9806916568       18.6248970300
  C        19.8070110152       14.7643078554       -3.4378325173
  N        19.6978424286       16.1008272632       -3.5736054281
  O        18.9813165120       17.9210081270       -2.3365269203
  H         9.0088672451       15.0089895510       10.2830415583
  H         9.8496895947       14.8356683531        8.8091103121
  C         8.0419110163       13.5882473257        9.1290937367
  H        20.2840367835       14.8645770970       15.5912452492
  H        21.6974914882       14.3168701658       14.6903044422
  C        20.7589227096       15.9307697008       13.7366090349
  C        13.1035040648        7.2763232992       19.0055842405
  S        20.0931909053       13.6678352244       -4.7808957102
  C        19.7706778206       16.8101308456       -4.8670835703
  H         7.4946834105       14.3388567890        8.4451913939
  H         8.0553421098       12.6432104287        8.5763821136
  C         7.0743122822       13.2579607614       10.3132676198
  H        19.8528200327       16.4143927796       13.8578854740
  H        20.8031001228       15.5806335691       12.6933254000
  C        21.8911671846       16.9979476861       14.0114633801
  H        13.1844400258        6.1817317031       18.9207765501
  C        12.5437608543        7.7010953977       20.1767087888
  H        20.5348297498       16.4330234862       -5.5113754410
  H        19.9561361956       17.8359199043       -4.5472325945
  C        18.4863939036       16.6953174011       -5.7044125911
  H         7.4720165205       13.7578697397       11.2158614915
  H         7.0997291803       12.1794617924       10.5353997965
  C         5.6480041010       13.7325341794       10.0027231505
  H        22.9318261481       16.5516800370       13.9747227094
  H        21.8776616835       17.6410820731       13.1941047362
  C        21.7667755842       17.7244173092       15.3776428738
  S        11.9753150829        9.2420001822       20.6731656603
  C        12.3656786600        6.6540912563       21.2288393272
  H        17.7403067356       16.0183458163       -5.2372806610
  H        18.7180437026       16.3849396915       -6.7254444829
  H        18.0691398670       17.6654809999       -5.7863357152
  H         5.4254908478       13.9659392721        8.9668111774
  H         4.9559113769       13.0354803235       10.4920860661
  H         5.5218403313       14.6460603719       10.5210796262
  H        20.7380180750       18.1343469968       15.3631211682
  H        21.9736146786       16.9997336679       16.1916290921
  H        22.5056921051       18.5127311028       15.4136328833
  C        11.6810046005        8.5603359417       22.2993931503
  N        11.7839180407        7.2124844335       22.3342733097
  O        12.5670990345        5.4610423852       21.0035469740
  S        11.3435077707        9.4997703881       23.7364053249
  C        11.5562731805        6.4092386605       23.5392641698
  H        11.2564727218        5.4647848441       23.2416304897
  H        10.7009659716        6.8156424932       24.1651525334
  C        12.8524319790        6.2277785163       24.2245433516
  H        13.4510351670        7.0914861936       24.1557604657
  H        13.3702277474        5.3454865599       23.8311284134
  H        12.5751196315        6.0046626380       25.2284994415
