352
 i =    82700, time =    82700.000, E =        25.0947706939
  H        10.3801486749        6.8450260883       31.8595818540
  C        11.3803623507        6.3353828391       31.7957945270
  H        12.0722218786        7.1337581334       31.8140662622
  C        11.6824467313        5.8104110231       30.3995576834
  C        11.7901197070        5.4377447143       32.9301468378
  C        10.5731610538        4.9110468947       29.9390621764
  H        11.9381416019        6.5846647948       29.6961787713
  H        12.5771693586        5.1847701243       30.3638257326
  H        12.6720950823        4.9087795625       32.6856796147
  H        11.8669316095        6.0751167633       33.8096058228
  H        11.0627759326        4.6775982331       33.2302703823
  C         9.9669884091        5.4817545717       28.6068277961
  H         9.7738226009        4.8818402936       30.7010787592
  H        10.9717298996        3.9539510849       29.6296571457
  C        10.8064378005        5.7026710639       27.4247613654
  H         9.0811077376        4.9587534514       28.2631854209
  H         9.5833576923        6.5015251889       28.8091779214
  C        10.0766837454        5.3333899718       26.1656885610
  H        11.5246283037        4.9063181599       27.3497293198
  H        11.2845172501        6.6995254145       27.4046359546
  C         8.8231286193        6.1238839544       25.9645256308
  H        10.7875746786        5.1794701197       25.3541028030
  H         9.8034830561        4.3060702921       26.2017480265
  C         7.7787068745        5.1915407339       25.3166792326
  H         8.4927204060        6.6184023766       26.8191644058
  H         9.1670102906        6.8749301193       25.2696514269
  C         7.3918877420        3.8185458906       26.0272493463
  C         8.1745571012        4.4705235320       24.0631061449
  C         6.5366654470        5.9870078107       24.9354845868
  C         7.3870692629        2.7709393962       25.1114858519
  C         6.9720660861        3.3940185642       27.2971829130
  C         7.9617749540        3.1464594208       23.9038610596
  C         8.6312257616        5.1920110025       22.9446801988
  H         6.0221163491        5.4860563843       24.2038147517
  H         6.7012572120        6.9176643260       24.4302892024
  C         5.5565666163        6.3205212356       26.0292041286
  S         6.9597202310        1.2531433662       25.8151462369
  C         6.6638647714        2.0509632925       27.3195450732
  H         6.8810373504        4.0711708853       28.0814735372
  C         8.2473595769        2.5530671514       22.7026765817
  H         8.7546928243        6.2562545263       23.0155223747
  C         8.8969234917        4.5661496008       21.7192479137
  H         5.8737567803        5.7479431098       26.8974805543
  H         5.7940508871        7.3243423617       26.2858837092
  C         4.0489064254        6.1406925365       25.6606877059
  C         6.2761217658        1.3490666512       28.5993096917
  C         8.8487587246        3.2560321397       21.6036964091
  H         8.1484005014        1.4778500816       22.6426677858
  C         9.3585882114        4.9665676153       20.5107126592
  H         3.9684790858        5.0750665047       25.3966564217
  H         3.8310007676        6.8205119180       24.7967632089
  C         3.0063962283        6.5367896541       26.7001092237
  C         6.2104601492       -0.0120283570       28.8660870144
  C         5.8934948903        2.2136763868       29.7607413668
  C         9.1542269652        2.5783950479       20.3024169309
  C         9.4752205041        3.9221224953       19.6483672605
  S         9.6871001341        6.4787907960       19.8170705141
  H         2.1193699471        6.8745306425       26.1631873771
  H         3.2706379660        7.3561608798       27.2299277267
  C         2.7715578505        5.2894409518       27.5624444346
  N         6.6803797184       -0.9759876344       27.9473935119
  C         5.8560793677       -0.5257265207       30.0774533252
  C         5.3206310527        1.6661851283       30.8634378664
  H         6.0255112794        3.2781849730       29.7742414505
  C         7.9119287770        1.9088764875       19.5963602196
  C        10.3678177527        1.5954535788       20.5540203199
  C        10.0205131931        4.3432297387       18.4294340505
  C        10.0517158465        5.7133633243       18.3536794987
  H         2.5440706158        4.4329391450       26.8909273763
  H         3.7649386642        5.0366029290       27.9490210565
  C         1.6048755396        5.4705683116       28.5846365543
  S         6.6282880315       -2.4215312096       28.6631557416
  N         5.9744501751       -1.9097814536       30.0954578355
  C         5.3940050705        0.2530744253       31.1794716004
  H         5.1013438933        2.3268384265       31.7182827762
  H         7.4853314120        1.1512815173       20.3090357189
  H         8.2644280355        1.3438842635       18.6494556843
  C         6.7735814236        2.8752189000       19.2899331958
  H        10.6927504437        1.1834163894       19.6137711355
  H        10.1260237037        0.7076992684       21.1449661555
  C        11.5588761929        2.3329506136       21.1769546199
  H        10.1969365083        3.6172805456       17.6834493262
  C        10.3748555723        6.5421515906       17.1600894893
  H         1.1528756984        4.5560718620       28.9669807218
  H         0.7832701653        6.0293182740       28.1584599312
  C         2.0223217535        6.1899605801       29.8972682832
  C         5.0476462902       -0.3625020074       32.4516362821
  H         6.9496622110        3.4328846884       18.3835213814
  H         6.6937906825        3.6127630883       20.0481640055
  C         5.3857283927        2.1832629976       19.0592323775
  H        11.3297922380        2.8168638572       22.1329951322
  H        11.7667355967        3.1241412271       20.4442634868
  C        12.7608657036        1.3927589915       21.2910562447
  C        10.4477032189        7.9403029160       16.9843681384
  C        10.8430226052        5.8156743573       15.9933185797
  H         2.9065730558        6.7203550684       29.5700591972
  H         1.2271109306        6.8508943434       30.2875974457
  C         2.5860507817        5.1395346304       30.8890542214
  H         5.1494877015       -1.3769682238       32.2987066299
  C         4.6845680981       -0.0168369017       33.7192898557
  H         4.5807172207        2.8144588978       18.8955597549
  H         5.0805971752        1.6251678503       19.9566448792
  C         5.4772648131        1.2056168345       17.8985100063
  H        12.5992110085        0.9445870014       22.2461063139
  H        12.6985993848        0.6611361803       20.4659337902
  C        14.0969695636        2.1610010901       21.4484043369
  N        10.1644967448        8.9082467505       17.9941518844
  C        10.7951306540        8.5759415951       15.8194634217
  C        11.1582888485        6.4522733962       14.7634358071
  H        10.6628575393        4.7664439286       15.9345953125
  H         2.3061974302        4.1390285033       30.6191343239
  H         3.6329252667        5.3314149129       30.9124984553
  H         2.3419588251        5.4156401248       31.9026957669
  S         4.3750806410        1.5436615685       34.2912645057
  C         4.7212119776       -1.1232442651       34.6953278130
  H         5.9161495297        1.8458131620       17.1198196984
  H         6.0888807775        0.3579289370       18.0747000922
  C         4.1697038014        0.5382649982       17.4067449413
  H        13.8740354963        3.2193749143       21.6614394634
  H        14.5711477785        2.0157714103       20.4979535938
  C        14.9939458898        1.6402452286       22.6130952130
  S        10.0302873325       10.4144406382       17.3601933595
  N        10.7027051170        9.9369677113       15.9403133010
  C        11.1676333839        7.9251739836       14.6421283899
  H        11.3205363689        5.7442693381       13.9468702491
  C         4.1369276124        0.7314446347       35.8604603426
  N         4.3842425324       -0.5759194466       35.8804777365
  O         4.9297089248       -2.3072825595       34.3951519220
  H         4.3893082327        0.1829947851       16.3506365714
  H         3.3447197054        1.2765412809       17.4553299133
  C         3.6567193868       -0.5641879188       18.3007886332
  H        14.3321607111        1.3957448898       23.4193638035
  H        15.4640042597        0.7094767119       22.3295505724
  C        15.9831060618        2.7291956167       23.1663538568
  C        11.4165545262        8.7244418559       13.4910434558
  S         3.9673422851        1.6209511169       37.3442535753
  C         4.5340914992       -1.3159729009       37.1302805416
  H         4.0540929710       -1.5363128139       17.9654352695
  H         3.9337201818       -0.3369769276       19.3053111737
  C         2.2097668767       -0.7583081144       18.1597452290
  H        15.4924697918        3.4329208202       23.7977552938
  H        16.2865892887        3.3158872087       22.3143596677
  C        17.2262476380        2.1458884520       23.7718152081
  H        11.3652336216        9.7306542947       13.6852841331
  C        11.9255780539        8.4415610376       12.2565547240
  H         3.8374132179       -0.9383070694       37.8805380403
  H         4.1842243499       -2.3659056080       36.9058787899
  C         5.9829361947       -1.2789675707       37.7768080153
  H         1.6789916695        0.1121061924       17.7647335264
  H         1.8378639136       -0.8630336439       19.2316461903
  C         1.8383289139       -1.9637765254       17.2146362594
  H        17.8640091283        2.8522146510       24.2441124214
  H        17.0718574391        1.2323190019       24.5003154677
  C        18.1802937089        1.6037387616       22.6441007680
  S        12.4841705844        6.8568503766       11.7854688835
  C        12.0342314671        9.4462692671       11.2167209774
  H         6.6800061125       -1.5993236976       37.0042505564
  H         6.1933318381       -0.2478813200       38.1146419644
  H         5.8873085382       -1.8169422959       38.6735253196
  H         0.8260453446       -1.9776511883       17.0193754023
  H         2.1172084443       -2.9405916616       17.5599155893
  H         2.2772742961       -1.7366317486       16.2497363049
  H        18.5647760926        2.4450915870       22.0354612414
  H        17.6978259065        0.8842834176       21.9635427916
  H        19.0078292023        1.0239306963       23.1236737929
  C        12.9880364289        7.5931263089       10.2925942906
  N        12.6803945537        8.9388189943       10.1823090166
  O        11.6945411869       10.6052837917       11.3997540192
  S        13.6260639632        6.6918121459        8.9125984768
  C        12.8876646887        9.6949535532        8.9635050595
  H        12.9459446104       10.7843009668        9.1969449893
  H        13.8223522434        9.4478345657        8.4455824047
  C        11.5846159759        9.6494680784        8.2192867464
  H        10.6745658045        9.5082103433        8.8075861319
  H        11.5650171917       10.5559870389        7.5233509136
  H        11.6681087759        8.8299194220        7.4366073575
  H        21.2236225639       11.3587653838        2.5996919861
  C        21.6322318353       10.3742265826        2.8920806076
  H        20.8639370767        9.6675531416        3.2449000913
  C        22.6854594777       10.7497177655        3.9437077878
  C        22.3056510863        9.8990456705        1.6774593921
  C        22.1186850606       10.8933854019        5.3544989954
  H        23.3255090858        9.8490582874        3.9398223902
  H        23.1872028483       11.6310795807        3.5802041157
  H        22.7884548557       10.7533273435        1.2978171120
  H        21.4996131877        9.6123860579        1.0069618395
  H        22.9133428212        9.0263512778        1.7440221786
  C        21.9062715251        9.5337194903        6.1114000686
  H        22.9077888925       11.5123614163        5.8443815563
  H        21.2371037279       11.5051836909        5.2316126331
  C        20.7494777358        9.4434841426        7.1570219821
  H        22.8024258174        9.3715840967        6.6100108687
  H        21.7943927545        8.7877422026        5.2971229968
  C        19.3805784043        9.5054327716        6.4782670595
  H        20.7038924347       10.3171034862        7.7552003093
  H        20.7070879814        8.6225759804        7.8313708295
  C        18.2549638688        9.7650421357        7.4901444724
  H        19.5550186846       10.2302779799        5.6854532049
  H        19.1045686243        8.6721976003        5.8860184890
  C        17.1463463294       10.7347759262        7.0601930334
  H        18.6797170599       10.0841659130        8.4185207654
  H        17.9605855960        8.7706741379        7.7183442564
  C        17.5673718744       12.0631301575        6.3869264604
  C        16.6519033204       11.4986510520        8.2336420667
  C        15.9345818307       10.1174264051        6.3324716042
  C        17.3199173010       13.1223461086        7.1692047409
  C        18.0648851941       12.4251473867        5.1386243701
  C        16.7237177473       12.8516938496        8.3729344229
  C        16.1551190675       10.8975921404        9.4268910134
  H        16.3816133085        9.6307110501        5.4904247280
  H        15.5252342520        9.2962858566        6.9722660553
  C        14.8140530671       11.0520240030        5.8503143342
  S        17.8314107323       14.6336179398        6.4144447314
  C        18.2435660278       13.7686197358        4.9846264633
  H        18.3386701666       11.6478149887        4.4933025399
  C        16.3424618642       13.5531225546        9.5141908530
  H        15.9878759940        9.8405478350        9.2894070338
  C        15.8345228781       11.5883242062       10.5844006282
  H        15.1488848575       11.7391380629        5.1226922914
  H        14.4799446063       11.6810061447        6.7133521690
  C        13.7131123352       10.3465995408        5.0675650905
  C        18.7330788150       14.4774650755        3.7137814828
  C        15.8695253551       12.9468950763       10.6902754372
  H        16.3888884924       14.6241732615        9.4998789630
  C        15.3994426511       11.2169816532       11.8227676473
  H        12.7680932819       10.9074532232        5.1691863340
  H        13.5239936312        9.3022430868        5.4052738624
  C        14.0405007516       10.2217710195        3.5536337283
  C        18.6730849994       15.8224150315        3.3759394288
  C        19.0922947181       13.6079401309        2.5595011052
  C        15.5484359566       13.6570356589       11.9968191121
  C        15.3135940380       12.3035454295       12.6856946339
  S        15.0504684567        9.7030241638       12.5631377296
  H        14.7851587288        9.4051830751        3.5118562934
  H        14.5344310692       11.0887645775        3.1465139192
  C        12.8718978386        9.8103695548        2.6941527691
  N        18.2741447779       16.7832624856        4.2910479712
  C        18.7587862605       16.3811982181        2.1177171673
  C        19.3886276106       14.1268879440        1.3165329175
  H        19.1912955894       12.5445780528        2.6619431957
  C        14.2700696572       14.5464481529       11.8465698513
  C        16.6591663604       14.4090996040       12.7129801631
  C        14.9774811543       11.8970629688       13.9748495843
  C        14.8029778627       10.5147663454       14.0481031037
  H        12.3548606216        8.8984307783        3.0983138824
  H        12.1813931746       10.6272712146        2.7886672181
  C        13.3389323683        9.5121155065        1.2776518354
  S        18.3613226243       18.2410145227        3.5977985216
  N        18.5442118116       17.7496978662        2.0522428542
  C        19.1540608413       15.5728414809        0.9756150622
  H        19.6202993375       13.4019495589        0.6710406767
  H        14.4491312581       15.3504399357       11.1223645238
  H        14.0820291407       15.0608250924       12.7608431663
  C        12.9602017503       13.8284159645       11.5958924666
  H        16.6834796060       15.4290175157       12.3883749845
  H        16.3885073550       14.4557552066       13.7477328369
  C        17.9968472253       13.6871634257       12.7139923908
  H        14.9987860088       12.5398175714       14.9073945115
  C        14.4102806260        9.6780433651       15.2888846956
  H        13.0245762003        8.5902998972        0.8313413121
  H        14.3821488027        9.3885128882        1.3033251145
  C        13.0210166784       10.5319793435        0.2321651749
  C        19.1530258128       16.1834553193       -0.2655898354
  H        13.1280046334       13.0809008636       10.7712355807
  H        12.8218707858       13.1898966037       12.4638937478
  C        11.7554930524       14.7467754462       11.2870541579
  H        18.3450525043       13.5455788002       11.7198443792
  H        17.8279196367       12.6389335947       13.0172805878
  C        19.0712879416       14.4536056723       13.5214162226
  C        14.3371653605        8.2836956628       15.3083066727
  C        14.0342824517       10.4227766154       16.4971001877
  H        11.9451879913       10.7922389631        0.3196355948
  H        13.5055510608       11.4402934781        0.5196809799
  C        13.5802877580       10.2277428153       -1.1913265099
  H        18.9781890628       17.2360660550       -0.2529588628
  C        19.6251960658       15.6929518524       -1.4986994070
  H        11.9755330418       15.3714107694       10.4917086373
  H        11.5426374201       15.3226012669       12.1543476028
  C        10.4605699153       13.9050729179       11.0464170301
  H        19.5796923933       15.2224286832       12.8522327489
  H        18.5990978814       15.0916706138       14.2809602981
  C        20.1702575857       13.6996165634       14.1005730435
  N        14.6662399781        7.3828366728       14.2591575436
  C        14.0412771180        7.6190345384       16.4463536231
  C        13.6575293289        9.7750270495       17.7007780206
  H        14.1102450458       11.4131216345       16.4107119438
  H        14.4848017909        9.5953335215       -1.0574908126
  H        13.8387041952       11.1532056575       -1.7488410223
  H        12.8271603645        9.7760985007       -1.7772185027
  S        20.1413594310       14.1204308010       -1.9563915942
  C        19.6950424151       16.7040035362       -2.5768120393
  H        10.7488049604       12.9058064966       10.9723909210
  H         9.8296524307       14.0511661414       11.9242645700
  C         9.8281952937       14.3747840243        9.7705865053
  H        20.1346787113       12.6964468936       13.6814837107
  H        19.8924898084       13.4349201464       15.1300734182
  C        21.5468657228       14.3444422114       14.1455199538
  S        14.4977033208        5.8404119034       14.8378019753
  N        14.1450721954        6.2140007237       16.3509922716
  C        13.7239157598        8.2780566120       17.6613948259
  H        13.4936573575       10.3729360908       18.6003224328
  C        20.2507679312       14.8042056969       -3.6344365975
  N        20.0340169321       16.1246082630       -3.7296925315
  O        19.5093320084       17.9214015032       -2.4346024353
  H         9.2455985508       15.3344917659        9.9939436397
  H        10.6100849319       14.7034134888        9.0432580527
  C         8.9019183960       13.2544664984        9.2539652405
  H        22.0541730304       13.4399556824       14.3527775965
  H        21.7812426079       14.5279570578       13.1257131873
  C        21.6188512731       15.5706004802       15.1080877139
  C        13.3782130337        7.4476905904       18.8011966000
  S        20.8134001302       13.9951175494       -5.0830745295
  C        20.0481582114       16.8638459471       -5.0099830153
  H         9.3691682774       12.7398829056        8.4311225969
  H         8.5704070649       12.5045976597       10.0016814635
  C         7.7036580796       13.9676682167        8.6037421620
  H        22.0887708973       15.0796997090       16.0204554082
  H        20.6237790424       15.9281816333       15.2527756150
  C        22.4637512926       16.7615376394       14.4922965179
  H        14.0106981506        6.5810550787       18.9763851988
  C        12.8276724548        7.7824372049       19.9900324276
  H        20.8536942134       16.7700710997       -5.7438843882
  H        20.1196266068       17.9331868747       -4.9428753938
  C        18.6440809628       16.7326673153       -5.6475174159
  H         7.5928526611       13.7051270265        7.5670057083
  H         8.0270211332       14.9404094467        8.3993607048
  C         6.5273118845       13.8213877214        9.5874056844
  H        23.5341738296       16.6297659535       14.3898788877
  H        22.0819264102       16.9881659550       13.4834658946
  C        22.2409290764       18.0651521647       15.2071778642
  S        12.0471222928        9.2473269988       20.5042721543
  C        12.8454754734        6.7277102508       21.0253754417
  H        18.6846379561       16.5096741618       -6.7123337382
  H        18.1673154821       17.7045627577       -5.5754723962
  H        18.0852264988       16.0078417423       -5.1463030750
  H         5.5427527112       13.9643330032        9.1212580342
  H         6.3667773096       12.9134821920       10.0784733770
  H         6.4934280740       14.6937417094       10.2743363392
  H        22.6271254385       18.0871662013       16.2404066967
  H        22.7140301559       18.8745516706       14.6188126653
  H        21.1254279725       18.2741639085       15.2335672161
  C        11.8278118408        8.4925614245       22.0704311454
  N        12.3201706205        7.2872544040       22.1987577166
  O        13.1100086291        5.5208840671       20.8304545696
  S        11.3813222527        9.2983121127       23.5032340731
  C        12.1930539949        6.4814773960       23.4484352251
  H        11.5091780581        5.6345382008       23.2013610340
  H        11.6282949889        6.8346707992       24.3093693767
  C        13.5763594317        6.1360194795       24.0077016028
  H        13.7778579110        6.6391774406       25.0029417491
  H        14.3538719254        6.7031442641       23.4670057367
  H        13.8503669011        5.1280279408       23.8766279438
