352
 i =    63900, time =    63900.000, E =        24.9740578645
  H        10.3623027551        4.2718831160       31.2528387583
  C        10.4082107604        5.3046408704       31.6007916275
  H         9.3991784025        5.6605594344       31.5646591351
  C        11.3881506813        6.2014039567       30.7529622631
  C        10.7016549339        5.4508434444       33.1475675779
  C        11.6635512011        5.6594540242       29.3822596960
  H        10.9366604741        7.2131203790       30.6424054537
  H        12.3020006922        6.2597004109       31.3164724506
  H        10.1332514528        4.8534557086       33.8500383696
  H        11.7581866164        5.3670624549       33.3214651327
  H        10.5019664069        6.4996123109       33.3647232709
  C        10.3584634410        5.3836388328       28.5888442931
  H        12.2180589931        4.7090639380       29.2654995876
  H        12.1336328737        6.4314921026       28.8148955558
  C        10.5126654353        5.5489573018       27.0527066154
  H        10.0406975821        4.3306339785       28.8853505097
  H         9.4333998605        6.0312516521       28.8318049200
  C         9.5534491717        4.7376043457       26.2137254003
  H        11.4996678757        5.1783427681       26.8321604041
  H        10.4691973253        6.5486591951       26.6832436908
  C         8.1705250181        5.4633494885       25.9612596466
  H         9.9818731360        4.3770265384       25.2874507814
  H         9.3124520525        3.8492007293       26.7690818526
  C         7.2234894894        4.4885638719       25.2668197323
  H         7.6096262296        5.7170756271       26.8341733082
  H         8.3530441898        6.3400800774       25.3389944378
  C         6.9864297944        3.1377211600       25.9050630218
  C         7.7968104365        3.8006027243       24.0743510053
  C         5.9621059848        5.1335139277       24.8043509899
  C         7.1188481303        2.0975008961       25.0607081022
  C         6.5288906019        2.8700640345       27.1962827037
  C         7.7141440907        2.4912949700       23.8892140169
  C         8.4149629607        4.5280864223       23.0078239731
  H         5.4107009899        4.3234084290       24.2515185198
  H         6.1299549323        6.0639568913       24.3005835565
  C         5.0779751680        5.5272484266       25.8474332626
  S         6.6601945605        0.6688560824       25.8882209410
  C         6.3500126793        1.5317509883       27.4058893168
  H         6.3658425749        3.6618807356       27.9761047399
  C         8.1324320195        1.9694473593       22.7155393064
  H         8.3755028676        5.6249207114       23.0519488376
  C         8.7257590848        3.9917373292       21.7966966175
  H         4.9303776448        4.6975389352       26.5226912606
  H         5.3613269615        6.4057497271       26.3653848224
  C         3.7113804580        5.8611695191       25.1513804749
  C         5.8982131132        0.9552459378       28.7103387140
  C         8.5616289767        2.6605106208       21.6175835515
  H         7.9366655188        0.8983577685       22.5315418273
  C         9.1432781361        4.4066861968       20.5745148201
  H         3.3230153366        4.9844510855       24.6181439202
  H         3.7855659747        6.6955625726       24.4787166985
  C         2.5836523013        6.1652953917       26.2003357134
  C         5.8556281092       -0.4218926799       28.8938362552
  C         5.5403091016        1.8291089221       29.8792058020
  C         8.7828530597        2.0092341132       20.2729044014
  C         9.1654280639        3.3699429491       19.6720519930
  S         9.4339034693        5.9562062704       19.8835651344
  H         1.8661587193        6.8514858136       25.7095781355
  H         3.0106401968        6.6447628235       27.1038091231
  C         1.8139186696        4.8794670382       26.6565356930
  N         6.2990299923       -1.4208145735       27.9652916963
  C         5.5792029867       -0.9877287688       30.1764021534
  C         5.3253385398        1.2109351912       31.1066321160
  H         5.3629184606        2.9235702009       29.8267819557
  C         7.5467107099        1.3345713670       19.6315972334
  C        10.0491635693        1.1524470084       20.2281464838
  C         9.5507702726        3.7991544969       18.4355505590
  C         9.7645563464        5.1441446395       18.3627773507
  H         1.0270235642        4.5040765449       25.9891072037
  H         2.5560995513        4.0620027688       26.6505416776
  C         1.2121344702        4.9897383588       28.0401670038
  S         6.2282450110       -2.8764758811       28.7419101164
  N         5.6389126382       -2.3763416692       30.2068485998
  C         5.2934783969       -0.2240630366       31.3490073153
  H         4.8887847599        1.7670874138       31.8428882098
  H         7.0062727842        0.7289182862       20.3731643302
  H         7.8538719477        0.6334597616       18.8454347229
  C         6.5829655447        2.3467947142       19.0628409331
  H        10.0739544680        0.6825858721       19.2898082119
  H         9.8465428511        0.3316097263       20.9411836732
  C        11.3610623307        1.8668904653       20.6627858424
  H         9.6828003796        3.1512981026       17.6388320049
  C        10.1210850938        5.9150395647       17.1546235212
  H         0.3772958696        4.2909460082       28.1363190201
  H         0.7822956093        5.9259344963       28.0856380038
  C         2.2441164231        4.8634914461       29.1847320094
  C         5.0425676755       -0.8749281551       32.6085633657
  H         7.0181374953        2.6861227219       18.1125625368
  H         6.4578376119        3.0843248256       19.7897013359
  C         5.2454001737        1.7928841209       18.8541956732
  H        11.1536799916        2.6056898743       21.4637271385
  H        11.6004310839        2.5222166397       19.9111583098
  C        12.4286563794        0.9103444597       21.0833328340
  C        10.1149870965        7.3376860952       17.0810201837
  C        10.5885197389        5.2190752514       15.9245174932
  H         2.8377585527        3.9726296051       28.9424811324
  H         3.0273445941        5.6591310404       29.1398466234
  C         1.7161936466        4.7765021642       30.6148283851
  H         5.2744654440       -1.8549794710       32.5430910052
  C         4.7176797931       -0.3882900221       33.8377157990
  H         4.4203523337        2.4970893830       19.1391492918
  H         5.1454403720        0.9296949207       19.4844559302
  C         5.2318160682        1.4245434687       17.4085194973
  H        12.1401510145        0.5171958210       22.0320952152
  H        12.3925875729        0.1924288596       20.2942907468
  C        13.8979720190        1.3991643237       21.2039279617
  N         9.6747842701        8.2347005510       18.0278936145
  C        10.4783566767        7.9729402730       15.9538771061
  C        10.9446593620        5.9101476317       14.8235096557
  H        10.6083225234        4.1519048136       15.9349598211
  H         1.0961088924        5.6308800365       30.8679617236
  H         1.1580205334        3.8941404142       30.7459850905
  H         2.6930833584        4.7496179515       31.1356853746
  S         4.5805852601        1.2197000686       34.3509205218
  C         4.6018073736       -1.4040317939       34.9178259188
  H         5.2971643248        2.2752737420       16.7531050613
  H         5.9347663075        0.6448222763       17.1854890114
  C         3.7741336048        0.8362640139       17.2028134897
  H        14.2321936198        1.6922047107       20.2282791931
  H        14.6467379881        0.6681228817       21.5029815863
  C        14.0687110507        2.5372363032       22.2043199840
  S         9.6994377573        9.7952906555       17.5490051154
  N        10.4369935238        9.3920430909       16.1473796523
  C        10.8793464561        7.3921110920       14.7838852214
  H        11.3474720543        5.3593933410       13.9618340403
  C         4.1211191817        0.5939803325       35.8880258028
  N         4.1643700147       -0.7382307939       36.0183523852
  O         4.7869032235       -2.6308146900       34.7867105233
  H         3.6999291016        0.5269403414       16.1685124745
  H         3.0324645955        1.5740336086       17.3698946969
  C         3.4775508060       -0.4125787858       17.9569184237
  H        13.3964917141        3.3547631618       22.0707882614
  H        13.9010820760        2.1201852550       23.1347973789
  C        15.5081212447        2.9716316134       22.2470649794
  C        11.0993280316        8.2576010051       13.6092727608
  S         3.6901582212        1.6823702985       37.2245386114
  C         4.1225175507       -1.4266121068       37.3332934077
  H         4.2747548459       -1.1933643108       17.6491564852
  H         3.4585395925       -0.3588838486       19.0885773700
  C         2.0584726946       -0.9076446249       17.6519276047
  H        15.7964162670        3.9495228790       22.6719965487
  H        15.8203445466        2.8868673410       21.1980303345
  C        16.3446311336        1.9982810763       23.1497437808
  H        10.8726596595        9.2981201190       13.7186233447
  C        11.5813059094        7.9514353095       12.3487971093
  H         3.5848212286       -0.8806839613       38.1445625143
  H         3.5522351445       -2.3458824714       37.2088515182
  C         5.5311616144       -1.6393047440       37.8376014732
  H         1.8809385555       -0.9616896465       16.5783359706
  H         1.3510877488       -0.2352540131       18.1189563762
  C         1.8502853773       -2.2933088256       18.2664552917
  H        16.5033712860        2.5836630775       24.0094758119
  H        15.9421195764        1.0641205948       23.5104068873
  C        17.6284751232        1.6438611872       22.5732454034
  S        12.1615536562        6.4037786978       11.8442324173
  C        11.7694449416        9.0488774906       11.3985476370
  H         5.5011243956       -2.7444816631       38.1536061079
  H         6.3530393530       -1.3536444828       37.1481800783
  H         5.6577730045       -1.0887956730       38.8256408398
  H         0.7829056802       -2.4650422144       18.5859990209
  H         2.4290254595       -2.4932103150       19.1980466522
  H         2.1696026639       -3.0938236633       17.5426869133
  H        18.3520151634        1.1448146108       23.2677028644
  H        18.0114447427        2.5994280738       22.1334306390
  H        17.5470095055        1.0620271487       21.6561045026
  C        12.6233249249        7.3004145077       10.3357281950
  N        12.4105713041        8.6230514712       10.3370225447
  O        11.3620531370       10.1367742602       11.6510034890
  S        13.1462731168        6.6360655801        8.8531805797
  C        12.6389144424        9.4900910521        9.1129368929
  H        12.8377484413       10.4575577154        9.5579345650
  H        13.5493546329        9.0698619897        8.6347340725
  C        11.4277420381        9.5562422850        8.1744801460
  H        10.5971274012        9.7657967372        8.8710103900
  H        11.4494133482       10.4320325657        7.4966418050
  H        11.2915910385        8.6195862690        7.5331465188
  H        22.1095820324        8.8888699055        4.0229855159
  C        22.3992961646        9.8662675959        3.8066066341
  H        23.2560497357        9.7818074842        3.1015417964
  C        22.9452942211       10.2699331598        5.1836178004
  C        21.2179318954       10.6125414785        3.2536435455
  C        22.0021937249       10.5339401707        6.3472581022
  H        23.7619366921        9.5700660546        5.4272186081
  H        23.5263408121       11.1235098992        4.9628362962
  H        21.0051238735       10.3495869420        2.1906914624
  H        21.2731144923       11.6722017199        3.4493016981
  H        20.3497250259       10.3330703587        3.8265245732
  C        21.2840830108        9.2140942734        6.7416778112
  H        22.6700940681       10.6726854629        7.1604520646
  H        21.4957114825       11.4277629759        6.2235305128
  C        20.2631496974        9.5019638255        7.8934798192
  H        21.9809192418        8.5071029561        7.1906110153
  H        20.9073215594        8.6423268554        5.8368193783
  C        19.0766104848       10.4144207878        7.6856955964
  H        20.8867132351        9.9187526091        8.6571261362
  H        19.8926393204        8.4661892208        8.2298470790
  C        17.9180715253        9.7988360451        6.8958015685
  H        18.6598889753       10.6825556845        8.6799851052
  H        19.5170383290       11.3224293422        7.2201048825
  C        16.6720776438       10.7615321294        6.8678492375
  H        17.5800083775        8.9090920607        7.4398852558
  H        18.2561657538        9.6458656338        5.8964331771
  C        17.0532774188       12.1135449650        6.2034048202
  C        16.3297701201       11.4077286845        8.1173230951
  C        15.4706252933       10.1254985706        6.0944860782
  C        16.9314000699       13.2160069681        7.0818695406
  C        17.4825722034       12.6211522523        4.9567271518
  C        16.4593224332       12.7495644889        8.2558728050
  C        15.8658931374       10.6823899825        9.2427204806
  H        15.8725624144        9.6270919275        5.2538350165
  H        15.1982420490        9.3076348698        6.7450939844
  C        14.2206414834       11.0294434124        5.6811053155
  S        17.3969543803       14.7260835550        6.4076657781
  C        17.7154488606       13.9510311765        4.8892058531
  H        17.6538152453       11.9029260005        4.1596404423
  C        16.2234805478       13.2271917478        9.5012122359
  H        15.7512610912        9.6347469668        9.1738535396
  C        15.5578033049       11.1993434288       10.4066251257
  H        14.6267213732       11.6713720274        4.9468102789
  H        13.8744814030       11.6987655660        6.4520859028
  C        13.1013790579       10.3620393825        4.9896671947
  C        18.1266556839       14.5793672272        3.6310386538
  C        15.7631548069       12.5344711472       10.5609616547
  H        16.2942661669       14.3017844932        9.7842515932
  C        15.1602830554       10.7948068301       11.6146578608
  H        12.2038393750       11.0135007344        5.1917873229
  H        13.0236882776        9.4206688483        5.6247105175
  C        13.2345146226        9.8882625238        3.5603548103
  C        18.0555598567       15.9888834210        3.3980534829
  C        18.6083029869       13.7334851943        2.4911816248
  C        15.3499619510       13.2538451310       11.8297266775
  C        15.0442709803       11.8632537509       12.4753725412
  S        14.8792046157        9.2584078126       12.3743551814
  H        13.5893649665        8.8643465340        3.5259557078
  H        13.9130292970       10.4531194742        3.0141122629
  C        11.8736036890        9.8617607132        2.8506660277
  N        17.5511429185       16.9767308824        4.3059508555
  C        18.4171355803       16.5660185684        2.1987521992
  C        18.8838108178       14.3367866734        1.2619023165
  H        18.7759276338       12.5991739114        2.5768066916
  C        14.0569188666       14.0884696593       11.5795178474
  C        16.2565085199       14.0876198203       12.6718560897
  C        14.6940038965       11.4373805328       13.7798872676
  C        14.6212960541       10.0919128902       13.8759959116
  H        11.1723543542        9.4524885221        3.5530700271
  H        11.6110225807       10.8995353551        2.6178669245
  C        11.8145342680        9.1039894230        1.5217560405
  S        17.6715056467       18.4375427365        3.5944529610
  N        18.3357296619       17.9640467347        2.2023063519
  C        18.8406105538       15.8473239241        1.0599556206
  H        19.2776399745       13.6885209981        0.4910972637
  H        14.2754856714       14.9248691753       10.8852028499
  H        13.6281545278       14.6659097455       12.3691023422
  C        12.9583529446       13.3415861446       10.9146857262
  H        16.6159816906       14.9306204260       12.0285683518
  H        15.6867034871       14.6199946846       13.4574059048
  C        17.3388017750       13.4384796768       13.4692837952
  H        14.5909800455       12.1822732448       14.5508474728
  C        14.2313024127        9.3479015934       15.1763255250
  H        10.7781940843        9.0583851883        1.2313737765
  H        12.2844111166        8.0921003846        1.5317300985
  C        12.6061635976        9.9569484281        0.5102883437
  C        19.1336199559       16.5886292336       -0.1431887209
  H        13.3439202902       12.9509023120        9.9239705742
  H        12.9249215891       12.4420092671       11.4863440728
  C        11.6590124121       14.1155038179       11.0870367664
  H        17.9100045250       12.6870932548       12.8837911487
  H        16.9084474627       12.8377907248       14.2793305609
  C        18.3048610488       14.5189558063       14.0134507757
  C        14.2388262685        7.9046093338       15.3580847870
  C        13.9081279981       10.1728923184       16.4056733123
  H        12.4051893625       11.0167730740        0.6884142063
  H        13.6635070933        9.7793973938        0.5472773649
  C        12.0439661883        9.6194460689       -0.8780536735
  H        19.1824118936       17.6756672236       -0.1289578865
  C        19.3513481591       16.1646300486       -1.4419788877
  H        11.6543798281       14.9804570964       10.4356877719
  H        11.6178679778       14.3641401049       12.0914738768
  C        10.5853530193       13.2205970040       10.4949069024
  H        18.4688603502       15.2843037063       13.2601218375
  H        17.7699893716       15.0265490954       14.8082012674
  C        19.6361762653       13.9767820083       14.4381502629
  N        14.8065868191        7.0295560284       14.3528086883
  C        13.8195427321        7.2845596792       16.5233543517
  C        13.5342465029        9.5085968974       17.5276699058
  H        13.9985265198       11.2478379996       16.3692316658
  H        12.0668354813        8.5686742714       -1.1560243300
  H        12.7781364339       10.1071993386       -1.4462380105
  H        11.0332451892       10.0358781171       -0.9583867650
  S        19.5373253356       14.5840728075       -1.9387760638
  C        19.4097596174       17.2199124427       -2.4948684476
  H        11.0322029271       12.6660648959        9.6705744961
  H        10.1525269060       12.4679680210       11.1882319618
  C         9.3902719174       14.0873689005        9.9605023737
  H        20.2105514248       13.8079566704       13.5158364986
  H        19.4962563400       12.9355586473       14.8013602396
  C        20.3571404818       14.8693159202       15.4614249201
  S        14.5384526586        5.5600624811       14.9175696810
  N        13.8433970582        5.8986619611       16.3739959356
  C        13.4752393016        8.0473131922       17.6536582254
  H        13.2837390635       10.1155203292       18.4017927607
  C        19.6530325764       15.3013114868       -3.5759136332
  N        19.7819150366       16.6422557708       -3.6059326219
  O        19.2549582449       18.4065242681       -2.3460816129
  H         8.9529661288       14.4969442225       10.9212178509
  H         9.7955550139       14.9107001751        9.3518836100
  C         8.4478101261       13.2955356117        9.1484636424
  H        19.6779347987       15.3431120184       16.2099548830
  H        21.0104611564       14.2436581963       15.9213693881
  C        21.1036021135       16.0319646337       14.8681205013
  C        12.9906321784        7.3189015449       18.8174154819
  S        20.0584654510       14.5183019500       -5.0051640878
  C        19.6097228040       17.4875800925       -4.7542930480
  H         9.0468197927       13.0425749056        8.2530533454
  H         8.3217116031       12.3782616143        9.6235159303
  C         7.0816335507       13.7808262031        8.8102889573
  H        20.4889268892       16.6281007045       14.2235935245
  H        21.8744602529       15.7169193057       14.1351319924
  C        21.8779301360       16.7931911686       15.9383499569
  H        12.9671511444        6.2275868425       18.8173561601
  C        12.5903827728        7.7145322125       20.0977867074
  H        20.0727206151       17.0602887508       -5.6396616059
  H        19.9681086362       18.5097067484       -4.6656147752
  C        18.1443580808       17.4578349865       -5.1348160513
  H         6.7510750596       13.2274227659        7.9032939956
  H         7.2090849255       14.7669700832        8.5992303251
  C         6.0481617095       13.6128784824        9.9658970350
  H        21.3284104996       16.6179996013       16.8717170741
  H        22.9065014737       16.3904143376       16.2173336124
  C        21.8930018542       18.3261393866       15.6866144714
  S        12.2365058741        9.3219082612       20.6388645730
  C        12.3759193141        6.7158939114       21.1564742891
  H        17.8608325874       16.4932824280       -5.6129680619
  H        17.8481062339       18.1984995479       -5.8738362068
  H        17.5064506966       17.7779006516       -4.2967041704
  H         6.1383564274       12.7383707108       10.6619683448
  H         5.8966508119       14.4375805193       10.6068233329
  H         4.9679216231       13.6865736305        9.6990818092
  H        22.4698499976       18.4667962253       14.8200137332
  H        20.8677486165       18.6876589067       15.4806431537
  H        22.4260858663       18.8621831095       16.4530750128
  C        11.6463384522        8.5318097555       22.1045940821
  N        11.8044394349        7.2181145507       22.2294399001
  O        12.6128111838        5.5087989537       21.0399708838
  S        11.1717896796        9.3498888661       23.5999637092
  C        11.7039809927        6.3735678922       23.4590510077
  H        11.3371241665        5.4265879849       23.1808967023
  H        10.8092395006        6.8406501775       23.9578386343
  C        13.0368555288        6.3687370507       24.2417738684
  H        13.5846288549        5.5104480940       23.9056169491
  H        12.8360925982        6.4391982173       25.3143790025
  H        13.7810236224        7.1894397607       24.0241606846
