352
 i =    85700, time =    85700.000, E =        25.1016777455
  H        11.0839316675        8.0605820618       31.4106146396
  C        11.9142681999        7.4742570107       31.7469160304
  H        12.7328788733        8.0795441518       32.1294107876
  C        12.5761526560        6.5564523836       30.7163655146
  C        11.2112949681        6.7144044146       32.9129926251
  C        11.6066121423        5.6856502440       29.9242627621
  H        13.1422095031        7.1422668437       30.0015294806
  H        13.3030596275        5.9927502216       31.2899310802
  H        11.3208500579        7.3253740723       33.8217320533
  H        10.1956623268        6.4268871792       32.7030766979
  H        11.8059254141        5.8330349972       33.1294658156
  C        10.5589054576        6.2916404751       28.9922397706
  H        11.1998920387        5.1150463519       30.7514973416
  H        12.1201065811        4.9377273950       29.3464511242
  C        10.7654454332        6.0465499501       27.4685938336
  H         9.4964240204        6.0682760108       29.2810912263
  H        10.6382895256        7.3112653618       28.9719151641
  C         9.7387660900        5.1364461808       26.7387312076
  H        11.7591834937        5.7571505533       27.4088749798
  H        10.7417017723        7.0908506720       27.1181500579
  C         8.5767514193        5.9852098043       26.2054969904
  H        10.2939150107        4.8582217459       25.8279659769
  H         9.5385640578        4.2387022460       27.3725593378
  C         7.5053059559        5.1445978440       25.5405501489
  H         8.1263597208        6.6448147879       26.9584338320
  H         8.9551241629        6.5934053494       25.4536114821
  C         7.2273796631        3.8775727679       26.1762637680
  C         8.1597933594        4.4527445076       24.3963737020
  C         6.1874975608        5.7773091607       25.0537535942
  C         7.5467341071        2.7426779829       25.4836215446
  C         6.7717438308        3.5910242589       27.4940282465
  C         8.1110778379        3.0752861377       24.2508864167
  C         8.6171105372        5.1584038445       23.3013390707
  H         5.5913201267        5.1453680278       24.4480418942
  H         6.4040003409        6.6316751350       24.4424569125
  C         5.1478586443        6.2277906049       26.0867296922
  S         7.1077133234        1.2950649841       26.3098624012
  C         6.6316555877        2.2273521647       27.6771311744
  H         6.6548683004        4.3726113210       28.1732981777
  C         8.5044880101        2.4663687796       23.0896311777
  H         8.5519867618        6.2130115253       23.3294565114
  C         8.9970183805        4.5172569280       22.1485418996
  H         5.2223155721        5.6644738035       27.0567927484
  H         5.5248627815        7.2715262590       26.4036357601
  C         3.6726515095        6.2346605996       25.5897194125
  C         6.1700123589        1.6313591424       28.9830591699
  C         8.9762655040        3.1982582050       21.9760137179
  H         8.4317077920        1.4279736591       22.9304802734
  C         9.4035636073        4.9636419575       20.9301883747
  H         3.4020928462        5.2961991824       25.1424354171
  H         3.5262398391        6.9413700464       24.7898166608
  C         2.6302484126        6.6218463727       26.6797024249
  C         6.1191181014        0.2651739516       29.3253674064
  C         5.7835676296        2.6489692896       30.0540586542
  C         9.3489573541        2.5249946470       20.7522594789
  C         9.6381176358        3.8939384702       20.1021713210
  S         9.5955507200        6.5349708417       20.2308313057
  H         1.6850693450        7.0147179789       26.2855496536
  H         3.1700152800        7.3280788412       27.2224702549
  C         2.2700366750        5.3599000961       27.4354183104
  N         6.3911444280       -0.8248595411       28.4614322976
  C         5.7099392104       -0.1880257548       30.5624643662
  C         5.3332575475        2.1732987191       31.2822951075
  H         5.9014707604        3.7064921500       29.9367752701
  C         8.1449210761        1.6250708799       20.1404762222
  C        10.5447475179        1.6635207791       20.9916420306
  C         9.8529016553        4.3318738192       18.7953566814
  C         9.9199512513        5.6804925668       18.7446374115
  H         1.8989199329        4.6125972618       26.7330993774
  H         3.1544961437        5.0046818877       27.8879838433
  C         1.2926079503        5.6055232604       28.6173825600
  S         6.3665813205       -2.2354646509       29.2820851649
  N         5.8365581433       -1.5811439499       30.7078580350
  C         5.3756544513        0.6758711057       31.6462539471
  H         5.1822944424        2.8743537501       32.1283283411
  H         7.8009283638        0.8385897353       20.8640038110
  H         8.4985430335        1.0186442274       19.2811438903
  C         6.8700728178        2.4904670067       19.8669196765
  H        10.8369009866        1.0180834415       20.1877632561
  H        10.3322988983        0.9606802724       21.7605701989
  C        11.7615182983        2.4584692266       21.4303807074
  H        10.0042395430        3.5335416554       18.0529803349
  C        10.2127879870        6.3903320670       17.4034971028
  H         0.8149879844        4.6994281290       29.0058342715
  H         0.4530060418        6.1919573541       28.2205198351
  C         1.7400418402        6.4322934097       29.8354793691
  C         5.2142510489        0.0904921271       32.9291051448
  H         7.1372717594        3.2891687385       19.1129952457
  H         6.5489303960        3.1164323043       20.7111892354
  C         5.8159789908        1.5641518344       19.3506886464
  H        11.5530914746        3.0460791051       22.3286850914
  H        12.0292272451        3.2035981253       20.6930334298
  C        13.0298332097        1.5781978416       21.5673658035
  C        10.2366116550        7.7499523973       17.2090346384
  C        10.3896718884        5.5236616459       16.2131624646
  H         2.4452852829        7.3118818352       29.5737846782
  H         0.9129193014        6.9681418004       30.2129267709
  C         2.4416531204        5.6025483450       30.9891168390
  H         5.4498131601       -0.9304493211       32.8568853036
  C         4.9175320810        0.5763784025       34.1543451773
  H         5.3600145925        1.0505520976       20.1599291143
  H         6.3628378000        0.8801059678       18.7346661249
  C         4.6388364435        2.2363383028       18.6505666667
  H        12.9589620483        0.9936035208       22.4590795962
  H        13.1283764469        0.9291426552       20.6620787297
  C        14.1855347513        2.5405034896       21.6983204057
  N         9.9564120480        8.7405138252       18.1730043653
  C        10.4755304697        8.3409009938       15.9900627469
  C        10.8759857501        6.1058585638       15.0038724013
  H        10.5184600426        4.4668858195       16.3169094597
  H         2.7553664537        6.2974177695       31.8080678228
  H         1.6385512851        4.9621482546       31.3276053013
  H         3.2317467868        4.8589358594       30.6571942354
  S         4.6124315063        2.1455868014       34.6317711413
  C         4.8622192126       -0.4250526787       35.2270415377
  H         4.5927797030        3.2858559138       19.0704592836
  H         4.8435038710        2.4531495379       17.5761404918
  C         3.2528822181        1.5223227465       18.8156347072
  H        13.8487554643        3.3711167349       22.3555654712
  H        14.2912828607        2.9925061226       20.7248224367
  C        15.4068303297        1.7529350378       22.1944838815
  S        10.0224639445       10.1858388084       17.5384332204
  N        10.3440634166        9.7553450373       15.9790099058
  C        10.7826635183        7.5724462543       14.8309730617
  H        11.1056725015        5.4279497591       14.1444393372
  C         4.4129637713        1.5773866190       36.2418847364
  N         4.5512738930        0.2285170240       36.3780846299
  O         5.2077263754       -1.5889311974       35.0330397092
  H         2.6185012461        2.3163977758       18.8517530021
  H         3.2501672529        1.1801397214       19.8569147651
  C         2.8715192510        0.4972324042       17.7443237930
  H        15.1742033335        0.9569197654       22.9905152237
  H        15.9694875988        1.3781496031       21.3148230019
  C        16.2529745447        2.7365836923       22.9837140796
  C        11.0949316937        8.3765681791       13.6366236471
  S         3.6559402771        2.4503497452       37.5272936038
  C         4.6569228130       -0.3523782156       37.6886461545
  H         2.2360221965        0.9842941204       17.0613728367
  H         3.7346073309        0.4132958374       17.0637041577
  C         2.5532417455       -0.8914318410       18.1157996995
  H        15.7292183459        3.0165095835       23.8609054802
  H        16.3389131585        3.6718637625       22.4479244610
  C        17.6528555589        2.1843588908       23.2008153906
  H        10.9171231064        9.4394020013       13.6929469650
  C        11.7303639124        8.0108479256       12.4788206129
  H         3.9262907545        0.0076221333       38.4248207227
  H         4.3648840200       -1.3587138018       37.5652693828
  C         6.1439773748       -0.2880491058       38.2701617626
  H         1.5140864974       -0.8815474519       18.0359990611
  H         2.7087248758       -1.0526119834       19.1501700070
  C         3.1079911804       -2.0184520397       17.1974430764
  H        18.1368284727        2.8303976123       23.9254663417
  H        17.5718496887        1.1510481151       23.5990498998
  C        18.4056062993        1.7742967008       21.9569376444
  S        12.2739714465        6.5297704793       12.0532654299
  C        11.8164879847        9.0464058300       11.4770894635
  H         6.5955565698       -1.2735729592       38.4388426742
  H         6.7524242357        0.2279424856       37.6070353308
  H         6.1726950060        0.2775343868       39.1644333946
  H         2.4818629900       -2.9307211086       17.1776053553
  H         4.1111061706       -2.3166398273       17.5372103998
  H         3.1281925152       -1.8100016201       16.1091625393
  H        19.4745043152        1.6959537326       22.0467329612
  H        18.2539828839        2.4773372380       21.1750936686
  H        17.9970611401        0.8370436422       21.5800348782
  C        12.8036811287        7.1888123790       10.5157033317
  N        12.5084469998        8.5368777784       10.4340577625
  O        11.4654495357       10.2226930122       11.6001440815
  S        13.6783982994        6.2838688801        9.3388441973
  C        12.8093780964        9.4576136528        9.3588367400
  H        12.7794206028       10.5681838846        9.6300654257
  H        13.8729490705        9.2302814598        9.0882942927
  C        11.9473980738        9.1068322133        8.2228737764
  H        11.0576737086        8.7116882728        8.6996060669
  H        11.7819685542        9.9304684938        7.6105717386
  H        12.4626870588        8.4768291410        7.5936236609
  H        21.6332015624       10.4349128599        3.4773481195
  C        22.5373643759        9.7567577082        3.4730767194
  H        22.2197971442        8.7601871072        3.4861298821
  C        23.2310625143        9.8666239336        4.7850419677
  C        23.4928588694       10.0795832990        2.2766349252
  C        22.3700946840       10.0004152807        6.0420558962
  H        23.8903235819        8.9932669405        4.9310829259
  H        23.8537437181       10.7701944455        4.8006131503
  H        23.0048651746       10.4505955796        1.3487264910
  H        24.1543546117        9.2153397157        2.0078652553
  H        24.0738869889       10.9605144238        2.5721012995
  C        21.7465838159        8.6049878521        6.2173997042
  H        22.9815677001       10.3362312930        6.8874962356
  H        21.5651517254       10.7828115128        5.9641797360
  C        20.5233842523        8.6755543846        7.1756070222
  H        22.4622039969        7.9594080182        6.8120131645
  H        21.5888991891        8.2089938135        5.2776185681
  C        19.2976482300        9.2967224393        6.4474105053
  H        20.8046277135        9.3331531888        7.9950588119
  H        20.2341239232        7.7217028880        7.6311128254
  C        18.2229338404        9.5767662921        7.5322719123
  H        19.6337444217       10.3099762094        6.0412525975
  H        19.0146519597        8.8176660464        5.5924108622
  C        17.0601713707       10.6527578187        7.2323744439
  H        18.6725190937       10.1464231511        8.3296601943
  H        17.7683827619        8.6993325164        7.9260449411
  C        17.5549952528       11.9695682086        6.6122637575
  C        16.5100708536       11.4147361306        8.4079499652
  C        15.8902888860        9.9753977486        6.4130930918
  C        17.2287476118       13.0603936669        7.3333766235
  C        18.0662841633       12.3027257202        5.3660858421
  C        16.6488822668       12.7642248286        8.5397991864
  C        16.0664774775       10.8023258251        9.5213942046
  H        16.2217828595        9.5817631865        5.4585737816
  H        15.5415080517        9.0916490965        6.9130580882
  C        14.6827521015       10.9523127182        6.3073701885
  S        17.7390371730       14.5143258653        6.6270510035
  C        18.1258190078       13.6606673027        5.1800519195
  H        18.1097502968       11.5404884356        4.5954437651
  C        16.1136917308       13.3951791883        9.6200890251
  H        16.0911591055        9.6972860685        9.6041790317
  C        15.6057162848       11.3842910556       10.6307088097
  H        15.0313750831       12.0298131602        6.0568954654
  H        14.3325555575       10.9365359786        7.3171729833
  C        13.6319982764       10.5046904083        5.3138773751
  C        18.5013107404       14.2586790803        3.8533420110
  C        15.5833998919       12.7468585980       10.7358362192
  H        16.1270366596       14.4505617726        9.7740640187
  C        15.2134525942       10.9774882893       11.8526603657
  H        12.8229238025       11.2392958494        5.3894135702
  H        13.1102620560        9.5528101883        5.5188237465
  C        14.0426787057       10.6515537334        3.8568017861
  C        18.5523464446       15.6331968947        3.5841728143
  C        18.9027456066       13.3958240236        2.7174405669
  C        15.1417963640       13.4550230469       11.9498096894
  C        14.9314108087       12.0741058906       12.6799981369
  S        15.0035657542        9.4973309107       12.6308944647
  H        14.8247443942       11.3472155149        3.8541365336
  H        13.1470607181       11.1275519176        3.4200642801
  C        14.3605226979        9.3405406008        3.0454995789
  N        18.2704721876       16.6765784572        4.5945246711
  C        18.8151113326       16.1689464410        2.3463697235
  C        19.1595727488       13.8823603969        1.4595802808
  H        19.1156999576       12.3879897398        2.8830189701
  C        13.8545592334       14.2749245744       11.7563226826
  C        16.3570183785       14.2468004450       12.5519106406
  C        14.6161573896       11.6765586415       14.0088948125
  C        14.6158969213       10.3045566694       14.0868809392
  H        15.3994433762        9.0909345468        3.1829444468
  H        13.6981304567        8.5431774389        3.3745530628
  C        14.3161971569        9.6223376641        1.5205541670
  S        18.2438810966       18.1441700039        3.8061419136
  N        18.7664777412       17.6167247286        2.3493943187
  C        19.1426122943       15.3877632173        1.2309266137
  H        19.3297315536       13.2277331993        0.5717459353
  H        13.9718667469       15.0005782306       10.9463964071
  H        13.5899321899       14.8361412690       12.6390350346
  C        12.7637474688       13.3358409091       11.3027544801
  H        16.4352554101       15.2059941257       12.0351736907
  H        16.1105829884       14.4893151260       13.5150887283
  C        17.6329857456       13.4558933715       12.5098438458
  H        14.3992965127       12.4013414121       14.7356613676
  C        14.1953896733        9.5572935156       15.3368897957
  H        14.8808490558        8.8137369085        1.0251999338
  H        14.9638575655       10.5083163919        1.3582193716
  C        12.8611849837        9.7061144365        0.9495160337
  C        19.5677657965       15.9686679720       -0.0112128944
  H        13.0596497434       12.7650929093       10.4226006362
  H        12.4536759010       12.6479137577       12.1029215503
  C        11.5009871662       14.1553663345       10.9532928056
  H        18.1945951261       13.9130499264       11.6846953757
  H        17.5228043869       12.4096718867       12.1383332117
  C        18.3937423814       13.5929219275       13.7985508701
  C        13.9380632303        8.1657666503       15.4427800483
  C        14.0149011978       10.3568941922       16.5897619494
  H        12.4245032120        8.7030335098        0.6847074472
  H        12.2294183653       10.1654426712        1.7382574907
  C        12.8139843181       10.5404328888       -0.2999035643
  H        19.4482345363       17.0308799762        0.0834512351
  C        19.7758540007       15.5032095512       -1.3123737796
  H        11.7673376300       14.9881227658       10.3186159859
  H        11.1098941061       14.5001110782       11.8373694568
  C        10.5611881386       13.2569365540       10.1655401379
  H        18.6869476637       14.6186009371       13.9160776375
  H        17.6383053250       13.4808500334       14.4762096492
  C        19.5694604817       12.7019739273       13.8687553199
  N        14.2461780682        7.2203188139       14.4020578741
  C        13.6846412917        7.5874463056       16.6502457314
  C        13.5350824768        9.7391388586       17.6950962442
  H        14.1492200824       11.4843802334       16.5713207214
  H        13.6624951260       11.2569369615       -0.3714237059
  H        11.8536838585       11.0794785269       -0.4478492563
  H        13.0070744150        9.9172681128       -1.2364985463
  S        19.7434267610       13.8717399420       -1.8801997267
  C        19.9407334520       16.5927252517       -2.3032403689
  H        10.8243161108       13.2802784282        9.1201382172
  H        10.5297755354       12.2784788518       10.5745384916
  C         9.1507527943       13.7479088184       10.1833864900
  H        19.9951334242       12.4524828793       12.9351780540
  H        19.2441489395       11.8288608225       14.4067481542
  C        20.6682353049       13.3773998863       14.7082378232
  S        14.1826480285        5.7414032554       15.0141762466
  N        13.7107284076        6.1989869580       16.5452081938
  C        13.3900750055        8.3340057570       17.8224200035
  H        13.4466223884       10.3680664043       18.5978120856
  C        19.9147464878       14.7060833311       -3.4911047819
  N        20.1229500394       16.0216843439       -3.5005748438
  O        19.9933954822       17.8027155136       -2.1239702677
  H         8.7823853122       13.5777505246       11.1609677297
  H         9.1458891329       14.7893346131        9.9538966661
  C         8.2503053537       13.0033726039        9.1246261872
  H        20.3357883040       13.6189946074       15.7179953854
  H        21.3872053006       12.5638873509       14.9008849286
  C        21.5140348304       14.4963885213       14.0662013084
  C        13.2380673638        7.6192208339       19.0910946800
  S        20.1295565602       13.8025779286       -4.9879450044
  C        20.2002088078       16.7230511477       -4.7989990965
  H         8.8024845583       12.7419065431        8.2572990820
  H         8.0391242658       12.0150209905        9.4601544390
  C         6.9132764633       13.7557557023        8.9331685542
  H        21.0794233894       14.8559331891       13.0520088601
  H        22.4803856580       14.0027054574       13.8848839217
  C        21.6696917702       15.7087043491       15.0893387661
  H        13.3846935426        6.5696851162       19.0371242806
  C        12.6315983984        7.9769092115       20.2725157261
  H        20.8754333344       16.2883599498       -5.5557899552
  H        20.5932568783       17.6801214750       -4.6490644531
  C        18.8281411405       16.8762087732       -5.4453483098
  H         6.4328493214       13.3364021391        8.0183316724
  H         7.0934386847       14.7832395709        8.6723354022
  C         6.0345036072       13.7748998301       10.2056713348
  H        20.7394233321       16.2565310559       15.0917021122
  H        21.8910667727       15.4416296480       16.0604535462
  C        22.8430445162       16.6391706219       14.7607818511
  S        12.1168762062        9.6301109779       20.7046486518
  C        12.6520789982        6.9883908718       21.3616052855
  H        18.2736730716       15.9475475721       -5.3773181521
  H        18.8637052832       17.2762575536       -6.4296785920
  H        18.1415581820       17.5286936928       -4.9024481129
  H         5.8569776254       12.8565128598       10.8337403797
  H         6.4818334264       14.6099744830       10.7908630022
  H         4.9960632111       14.0282784375        9.9326373822
  H        22.8835748546       17.6096071378       15.3695645316
  H        23.8575025465       16.1749680106       14.8943378881
  H        22.7232492985       16.8770221030       13.7317554201
  C        11.6344778587        8.8564110846       22.2624928002
  N        12.0280291536        7.5458295822       22.4340764794
  O        13.0224739993        5.8341756142       21.3146462691
  S        10.9043948551        9.8040077375       23.5554066348
  C        11.8501800641        6.7931980444       23.6520321899
  H        11.6412542177        5.7343999950       23.3895652188
  H        10.9392171352        7.1858036689       24.0656628535
  C        12.9823412136        6.6660149468       24.6405214086
  H        12.9737417467        5.5788754130       24.8238528670
  H        12.6663082979        7.2008136445       25.5785811321
  H        13.9435170286        6.8541754475       24.2692752355
