352
 i =    77400, time =    77400.000, E =        25.1422587728
  H        10.4345860283        6.5608326118       32.1814369317
  C        11.3677832933        6.0698658801       32.3976919874
  H        12.0588064113        6.8628517940       32.7220238548
  C        11.8351887938        5.2797269897       31.2137253632
  C        11.1797044601        5.2263303502       33.6849177611
  C        10.6454894793        4.7576050611       30.3479100380
  H        12.5056320337        5.8819529343       30.6080648564
  H        12.4432600591        4.4426323858       31.4989272363
  H        11.1052875198        4.1588240481       33.4158488334
  H        12.0280392862        5.3061158707       34.3359460751
  H        10.2915592856        5.4621158952       34.2051628523
  C        10.2024074284        5.8071786407       29.3213087220
  H         9.8648574963        4.3253042208       30.9089310351
  H        10.9911028955        3.9094571291       29.7830595925
  C        10.5518383955        5.4235537891       27.8529385194
  H         9.1560675954        6.0356458398       29.4294725679
  H        10.6436895391        6.7183739661       29.5768790794
  C         9.5395859434        4.6108740289       27.0545792647
  H        11.5816580410        5.1129727606       27.7942280219
  H        10.6217764221        6.3916993504       27.3004029924
  C         8.3442236102        5.4638791535       26.5180323394
  H        10.0412369160        4.2481297472       26.1389124006
  H         9.2791321602        3.7431368018       27.7809819719
  C         7.2908399386        4.5989990798       25.7631792230
  H         7.8680752134        6.0997248001       27.3107450228
  H         8.6723613572        6.1827875305       25.7836451992
  C         7.0417766665        3.1817363918       26.4188198916
  C         7.8273629826        3.8553727066       24.5241875084
  C         5.8558860894        5.2380680207       25.3375887909
  C         7.3496262536        2.1342542529       25.5583562113
  C         6.6055211333        2.7904534183       27.7089400860
  C         7.7960007615        2.5388758999       24.3522493262
  C         8.2467197007        4.5555500515       23.4330676487
  H         5.3120768286        4.4561853312       24.8129504292
  H         5.9913920131        5.9960824578       24.6456923241
  C         4.9141655975        5.6089904449       26.4702164774
  S         6.9090668507        0.5487304988       26.3100250299
  C         6.5167956687        1.4490688488       27.7608717032
  H         6.5707833452        3.4602102011       28.5668617076
  C         8.1033615608        1.9161236734       23.1836359914
  H         8.2837080551        5.5798975991       23.5454912288
  C         8.4279480199        3.9476323310       22.2132030033
  H         5.2358338389        4.9572571988       27.3814123755
  H         4.9785852382        6.5947607098       26.7722688854
  C         3.4663898013        5.3676668726       26.0488504943
  C         6.1695530715        0.7529328825       29.0337861996
  C         8.4441709233        2.6135612520       22.0303777402
  H         8.0362684149        0.8559976756       23.1145386764
  C         8.8112502543        4.3832061014       20.9506457779
  H         3.2297863518        4.2988665058       25.8646552347
  H         3.1834632937        5.8831834584       25.1598164403
  C         2.3656616384        5.7263230302       27.0532056176
  C         6.2539843650       -0.6267443131       29.3144722647
  C         5.5681794290        1.4813211765       30.1485816693
  C         8.7336375552        1.9518136599       20.7655826153
  C         9.0076190811        3.3281806114       20.0857365220
  S         9.1292163018        5.8771064943       20.1846111883
  H         1.4710681237        5.6108746443       26.4038150109
  H         2.4144782718        6.7443864973       27.3788611164
  C         2.2272617395        4.7126025584       28.1742683470
  N         6.5779929147       -1.6128845644       28.3163448801
  C         5.8322072260       -1.1794388733       30.5501133121
  C         5.2111552377        0.9858574179       31.3716628324
  H         5.2053576357        2.4794791071       29.9598991751
  C         7.6152769326        1.1935828250       20.1775713676
  C        10.0119198928        1.1181674777       20.7917533059
  C         9.3185439578        3.7230329454       18.7571733911
  C         9.4444915517        5.0791768063       18.6214213922
  H         1.4064058702        4.0272905291       27.9624013707
  H         3.0701412375        4.1019173968       28.2989584171
  C         2.1352569558        5.4773747929       29.4950180256
  S         6.4297693820       -3.0712970303       29.0991605217
  N         5.9403421750       -2.5716561249       30.5781759346
  C         5.4658278314       -0.4261238640       31.6689479158
  H         4.6485584794        1.6353585788       32.0671318769
  H         7.4124911684        0.3705226848       20.7509541591
  H         7.9161898621        0.7674396612       19.2075463585
  C         6.3952284076        2.1167440148       19.9112574781
  H        10.2687817255        0.6688105120       19.8003726109
  H         9.8962032362        0.3413785483       21.5250267078
  C        11.2043068723        2.0236063919       21.1658950444
  H         9.5294661667        2.9210795204       17.9976554740
  C         9.8321553575        5.7862982311       17.3823205005
  H         1.4568337139        6.3405998435       29.4152338572
  H         3.1020074000        5.8597641667       29.8262490639
  C         1.5889882023        4.7747456856       30.6691338235
  C         5.2392679862       -1.0066604143       32.9819045050
  H         6.7170131658        2.9109038004       19.3127749587
  H         6.1099397576        2.6448920482       20.8087426269
  C         5.1464516010        1.2909565441       19.4172358061
  H        11.0456581174        2.5072700305       22.1461881679
  H        11.3448200343        2.8417959973       20.4386457212
  C        12.4231322429        1.1437871160       21.2900091413
  C         9.9099190055        7.2231145602       17.2473030017
  C        10.1854833266        5.0442947569       16.1478333017
  H         1.0413417218        5.4281734011       31.2258049852
  H         0.8987580061        4.0007516691       30.3338212448
  C         2.6408372828        4.1851769547       31.5824963053
  H         5.1908557636       -2.0834489349       33.0268763967
  C         4.9439319575       -0.5215087300       34.2464277041
  H         4.1936525785        1.7319688170       19.6054004205
  H         5.1040579772        0.4063640873       20.0794917866
  C         5.0344687429        1.0646133717       17.9252884077
  H        12.2265198062        0.4297398115       22.1197030929
  H        12.5800741084        0.6033069849       20.3779850576
  C        13.6378298459        1.9488067708       21.6631128636
  N         9.7107946443        8.1167963087       18.2832088271
  C        10.2276084861        7.8985853489       16.0472119324
  C        10.4706141847        5.6863868289       14.9570850264
  H        10.1912305965        3.9339124927       16.2125058319
  H         3.2130476785        4.9256362572       32.0958524994
  H         2.0564220898        3.6964748900       32.3760951853
  H         3.2882939722        3.4692019486       31.1041719272
  S         4.7523595715        1.1370658220       34.6271484034
  C         4.6616214501       -1.4199447637       35.3959897971
  H         5.2186350474        2.0091230397       17.3740534103
  H         5.7195068065        0.3181514842       17.5213567891
  C         3.6194306201        0.6994065913       17.4409862522
  H        13.4245657240        2.9700726659       22.0497580935
  H        14.1232952555        2.1196317959       20.7180598241
  C        14.6546171279        1.3950952093       22.6370141558
  S         9.8208052383        9.6373580230       17.7366608315
  N        10.3543081625        9.2971997677       16.2313392163
  C        10.4922859130        7.1960865482       14.8513004519
  H        10.6446437454        5.1356309945       14.0022655879
  C         4.1508551159        0.5982675066       36.2349294634
  N         4.2380044003       -0.7006713255       36.4047371988
  O         4.8490167920       -2.6838124499       35.3144950923
  H         3.6210903893        0.5870844047       16.3310451955
  H         3.0007256962        1.5503393339       17.7195941286
  C         3.2297587678       -0.6562100052       18.0410041958
  H        14.2279322357        0.6550322258       23.3149753412
  H        15.2663426010        0.7656717325       22.1049882744
  C        15.4244363270        2.5119074240       23.4014157778
  C        10.7205768038        7.9533253728       13.7010226323
  S         3.8188954470        1.6606111409       37.7060642248
  C         3.8670252705       -1.3763529308       37.5887938426
  H         4.1135242350       -1.1782802252       18.3535378375
  H         2.8546744322       -0.4460308087       19.0241904799
  C         2.2826281007       -1.6001379531       17.2176397387
  H        14.8054313610        2.8645703331       24.2181003005
  H        15.5867726481        3.3780077890       22.6828062942
  C        16.7796781616        2.1772037708       23.9009418419
  H        10.2857406889        8.9258243183       13.7141332825
  C        11.3642547102        7.7432223363       12.4674336341
  H         3.1177355827       -0.8595226706       38.2115689876
  H         3.3054149397       -2.2908310927       37.3708385353
  C         5.1181028478       -1.7612988797       38.4468248250
  H         1.6875639301       -0.9375840027       16.5652850493
  H         1.5547937798       -2.1319197233       17.8399113088
  C         3.0944079264       -2.6441180924       16.3961902049
  H        17.1141081760        2.9278234714       24.6913575907
  H        16.7192033370        1.3003599745       24.4102190548
  C        17.6994750731        2.0316533604       22.7602763136
  S        11.9951888661        6.2395777221       11.8832191859
  C        11.3604386587        8.8749002787       11.5227096416
  H         5.0543256064       -1.7444782623       39.5836393171
  H         5.5865114236       -2.7430957904       38.2238535043
  H         5.8547209288       -0.9622993148       38.2271135267
  H         3.7272331685       -2.0537333192       15.7470004041
  H         2.4623176361       -3.1925893329       15.7524263225
  H         3.8245416872       -3.2294254923       16.9741019413
  H        17.6695474730        2.8241588039       22.0235893402
  H        17.4173630346        1.1594012982       22.1583975705
  H        18.7448633177        1.8127083810       23.0528198649
  C        12.2478195253        7.1481791675       10.3928992997
  N        11.9481491318        8.4527599663       10.3863913163
  O        11.1066481137       10.0094355901       11.7536635048
  S        12.8775319362        6.2125730835        9.0290185012
  C        11.9990357663        9.1259314109        9.1454108479
  H        12.2214582486       10.1546145433        9.3671922684
  H        12.9028195082        8.8623646413        8.6779270751
  C        10.6650515880        8.8435160048        8.3047274411
  H        10.0938831717        8.1319706972        8.9567817594
  H        10.1043557936        9.7854861739        8.1955761306
  H        10.9345710603        8.4731244766        7.2932219330
  H        20.5806175347       10.9804217785        3.9934012881
  C        21.1737709213       10.0740479123        4.0083592728
  H        20.5612842633        9.3394128026        4.4729249756
  C        22.4194147140       10.2639597203        4.8924076689
  C        21.6198656523        9.8851274348        2.5215817266
  C        22.1132793919       10.4124335358        6.3820084302
  H        23.0889613246        9.4488642551        4.6577065536
  H        23.0287776544       11.1132519349        4.5108577640
  H        22.5225732746       10.5379020201        2.2275726390
  H        20.8133285843       10.2507070648        1.8875446345
  H        21.7813414153        8.8201476044        2.2642585212
  C        21.6045021053        9.0361737479        6.9916986780
  H        22.8706776986       10.9629008183        6.9519291753
  H        21.1923675913       11.0574240598        6.2887231382
  C        20.2880238679        9.0411320754        7.7380361608
  H        22.4200491785        8.7566598060        7.7247937083
  H        21.5659643601        8.2138116489        6.2602029700
  C        19.0293525536        9.3666327199        6.9239636498
  H        20.3230544068        9.7802846039        8.6077600560
  H        20.2256912509        8.0257547504        8.1711068118
  C        17.7989163332        9.6430432791        7.7773212055
  H        19.2369394681       10.0895050565        6.1296129057
  H        18.7766167299        8.3472145793        6.4846448521
  C        16.6022105279       10.4553152820        7.2455260427
  H        18.1429991503       10.0498177140        8.7786261596
  H        17.3339761991        8.6677668927        7.9612544201
  C        16.8966007143       11.8844303372        6.5718916365
  C        16.0059188679       11.2388391850        8.3824745793
  C        15.6240819887        9.6930538312        6.3842370856
  C        16.5422460062       12.9733328649        7.3138844095
  C        17.4584510832       12.2328053911        5.3549377638
  C        15.9688279725       12.5598842119        8.5181130908
  C        15.5377258808       10.4974601461        9.4701249923
  H        16.1407921356        9.3718825838        5.4744239613
  H        15.3416714501        8.8798633287        6.9954695626
  C        14.3168492469       10.5281292800        6.0861731207
  S        16.8249578570       14.3960656424        6.4904548714
  C        17.3832357605       13.5666131250        5.1231804372
  H        17.5838601663       11.4424183059        4.5818880274
  C        15.5009035766       13.1329725600        9.6331450340
  H        15.4513954472        9.4060875219        9.3580360167
  C        15.0457310544       11.0914367043       10.6460596786
  H        14.5317276800       11.4922949639        5.7115429647
  H        13.8020811041       10.5849987831        7.0463178419
  C        13.3075402219        9.7941635363        5.1186105898
  C        17.8325457188       14.3102642538        3.8707427300
  C        15.0077251157       12.4111593526       10.7639097383
  H        15.6155736709       14.2069978622        9.6926038256
  C        14.6200183016       10.6814507430       11.9140303835
  H        12.2840288477       10.1192802739        5.2267704607
  H        13.3527600395        8.7411786994        5.4913597645
  C        13.8514980471        9.8360895280        3.6869211382
  C        17.8476204541       15.7463247151        3.6104732701
  C        18.2228789551       13.5216904336        2.6731254238
  C        14.6487847144       13.1299107251       12.0408221085
  C        14.3921420823       11.7528832969       12.7722231476
  S        14.4494483147        9.1529890746       12.6613648206
  H        14.4856843644        8.9658040816        3.6044407459
  H        14.3464989468       10.7785445853        3.4921217855
  C        12.8004921544        9.7939337616        2.6199773736
  N        17.5374842114       16.6650284838        4.6501819603
  C        18.0211269409       16.3235026118        2.3612839248
  C        18.5590094856       14.0831556414        1.4332959484
  H        18.1311623548       12.4053632049        2.7173683623
  C        13.3442602811       13.8876401804       11.9436096493
  C        15.8121934066       13.9669861839       12.6445898462
  C        14.0971268118       11.2788694693       14.0906555613
  C        14.0239771212        9.9381584791       14.1908481145
  H        12.0927071406        9.0431307767        2.8446723499
  H        12.1210693687       10.7144932447        2.4952910285
  C        13.4944071239        9.5617474369        1.2639047513
  S        17.2872544103       18.1129888124        3.9386555421
  N        17.8006341530       17.7005866865        2.3595643482
  C        18.4389863551       15.5445562907        1.2530374175
  H        18.8689876513       13.4154565780        0.6752401080
  H        13.5344908975       14.7432771874       11.3003544739
  H        13.1893989794       14.2930091359       12.9583881248
  C        12.1414255288       13.1775170949       11.4267731050
  H        15.9789761117       14.8737087357       11.9727548523
  H        15.4061401809       14.5067347679       13.5482673636
  C        17.0023709402       13.1326616712       13.0417521096
  H        13.9735734104       12.0778531480       14.8214879611
  C        13.8041145675        9.2201267628       15.4666829245
  H        13.5721498966        8.4720856679        1.1626179277
  H        14.4281127065       10.0442770212        1.3860850397
  C        12.8632587325       10.1420135646       -0.0289574195
  C        18.7543691408       16.1820259524       -0.0059513427
  H        12.3460253937       12.6324778248       10.5021320343
  H        11.8872828875       12.4177721674       12.1676552678
  C        10.8516316794       14.0195767163       11.3286455884
  H        17.4085851009       12.6577330028       12.1363564743
  H        16.6896681596       12.3722732567       13.7176184604
  C        18.0625373796       14.0472663988       13.6237046435
  C        13.6868221412        7.8669690638       15.6514489243
  C        13.6236485961       10.0585684289       16.6901167469
  H        12.7688515236       11.1992456736       -0.0867899479
  H        13.5065593196        9.9090096349       -0.8655184027
  C        11.4619891874        9.5726195492       -0.2303627021
  H        18.4402004688       17.1575928344       -0.0189301451
  C        19.1053065912       15.7933605942       -1.2506972738
  H        10.9809706831       14.8404887801       10.5970737811
  H        10.6513697826       14.6152840015       12.2406285168
  C         9.6445720903       13.2192067382       10.9872931163
  H        18.2051630122       14.9361755356       13.0367742419
  H        17.6888206350       14.3399065873       14.5897872177
  C        19.5078284280       13.4653263410       13.8189727207
  N        14.0293681966        6.9548991947       14.6796902849
  C        13.5146212958        7.2636366984       16.9286957357
  C        13.3091997946        9.5000461669       17.9132114536
  H        13.7079907027       11.1269427211       16.5567040315
  H        11.3013346627        8.7412911358        0.3891979964
  H        11.3498888724        9.3555264583       -1.2589341072
  H        10.8874641496       10.3498348422        0.2209786936
  S        19.3352765815       14.1580194717       -1.7449247889
  C        19.0290300721       16.7640709478       -2.3490137224
  H         9.9338261283       12.1766858779       10.5574042096
  H         9.1250025984       13.0051272120       11.8939296328
  C         8.7720807829       13.8531664245        9.9463268072
  H        20.0275354897       13.3595757362       12.8751991125
  H        19.4736232470       12.4463841123       14.1353968512
  C        20.3278786206       14.2528935581       14.7645935151
  S        14.0233923012        5.4529738913       15.3410327267
  N        13.6605628014        5.8462594364       16.8911613134
  C        13.2403208168        8.0231402014       18.0986887517
  H        13.1633032481       10.1740868115       18.7827067789
  C        19.3396499527       14.8058099992       -3.4467298850
  N        19.2044517785       16.1327376318       -3.5630690557
  O        18.8380116554       18.0243132396       -2.1519751398
  H         8.2857599960       14.7699216570       10.3858216009
  H         9.5186581123       14.1374683433        9.1337021620
  C         7.8342244478       12.8538628448        9.4026972676
  H        20.0415461766       14.0176926317       15.7498115528
  H        21.3125053661       13.8012656087       14.8459849085
  C        20.4656291374       15.7365937593       14.5086381262
  C        12.9448243529        7.3083675229       19.2739724246
  S        19.8722387519       13.8895390422       -4.8066089445
  C        19.1012944106       16.8890748443       -4.8693675988
  H         8.3186304291       12.0996181750        8.8022941781
  H         7.3510822563       12.2738833980       10.2442648374
  C         6.6988848557       13.4401284544        8.5831670267
  H        19.4571721020       16.1223871325       14.3272453705
  H        21.0649172329       15.8872878736       13.6190751559
  C        21.0126935356       16.5351946606       15.7174117419
  H        12.9916106568        6.2734304273       19.1644756122
  C        12.3993443865        7.6245990361       20.4605995368
  H        19.4359689408       16.3757270135       -5.7851655960
  H        19.5525714447       17.8876036638       -4.6496844486
  C        17.6043323855       17.3777414460       -4.9760111306
  H         6.6356608354       12.7020891231        7.7655487986
  H         6.9781600454       14.4341869640        8.2375390153
  C         5.5026032845       13.5654573862        9.5065235387
  H        20.1897186585       16.7293227324       16.3557514811
  H        21.7992547925       15.9958522217       16.2267150861
  C        21.7361079500       17.8291710739       15.3784767479
  S        11.8534980965        9.2290912151       20.9773862918
  C        12.1917506364        6.5379991827       21.5072287031
  H        16.8317595110       16.6038037454       -5.1754086326
  H        17.4924261169       18.0964252003       -5.7699400144
  H        17.3387324900       17.9374664711       -4.1350187782
  H         5.9635526376       13.9039701051       10.4398225912
  H         4.8464610525       14.3561995147        9.0753318048
  H         4.9236688922       12.6907192268        9.7018559682
  H        22.2845223355       17.6043718170       14.4590972356
  H        20.9932350843       18.5372214835       15.1551426949
  H        22.3520430523       18.2351308843       16.1644405980
  C        11.5819007353        8.4423438001       22.4955176505
  N        11.6258456278        7.1293789712       22.5714514815
  O        12.5061061875        5.3645732746       21.3319327403
  S        10.7877602395        9.3074114172       23.8684469208
  C        11.4857068671        6.3018459795       23.8124914920
  H        11.2755098425        5.3264370806       23.5153542411
  H        10.5449543594        6.6192158394       24.3034314169
  C        12.6921262956        6.3771320508       24.7280860104
  H        12.6395482624        7.2068381320       25.3622653686
  H        13.5951822636        6.4360612179       24.0535394107
  H        12.8393505765        5.5313332223       25.3497011651
