352
 i =    46700, time =    46700.000, E =        24.5348534280
  H        12.2272450778        7.4253162036       33.4916306666
  C        11.9718248997        6.6271189353       32.7875145250
  H        12.8720812869        6.0707190783       32.4913736220
  C        11.4008338081        7.2103603161       31.4901726865
  C        10.9984281621        5.5160150653       33.2624997507
  C        11.7531642210        6.4466258275       30.1424747727
  H        10.2897138941        7.3779398605       31.5990054295
  H        11.7856250063        8.2399743784       31.4839056102
  H        10.8326239237        4.8871189378       32.3978119492
  H        11.5279909408        4.8880091408       34.0685760667
  H        10.0381002296        5.7986213247       33.5988556411
  C        10.5636040182        6.2642063994       29.1620147697
  H        12.0977429627        5.4418959292       30.4516124280
  H        12.5795117651        7.0194491964       29.7552044380
  C        10.9190306338        5.9747125282       27.6763274038
  H         9.9882087207        5.4684111245       29.5585422409
  H         9.9666806772        7.1753317578       29.2634834537
  C         9.9214855389        5.2750473710       26.7620453941
  H        11.8490626631        5.3508452693       27.6491177990
  H        11.3515727993        6.7699629686       27.1381162840
  C         8.5795476387        6.0749778075       26.3173040763
  H        10.4906025231        4.8634463280       25.8911667664
  H         9.5219379743        4.5252578803       27.3642367108
  C         7.4795338121        5.2405310293       25.5288509376
  H         8.1686649602        6.5187374864       27.1933344262
  H         8.8324052448        6.9138657061       25.7105293803
  C         7.0819353557        3.9884267290       26.2130528239
  C         7.8224986362        4.5422125211       24.2925890671
  C         6.1656343391        6.1330410707       25.2354284153
  C         7.2020776448        2.8331931952       25.4452533205
  C         6.6119442337        3.7291369016       27.4838728631
  C         7.6876878173        3.2012697591       24.1884417860
  C         8.1925794613        5.2430496798       23.1092341912
  H         6.3629682424        6.7966444687       24.4602548196
  H         5.8039995667        6.7904124042       26.1455010732
  C         4.8969299382        5.3479631188       24.8591330620
  S         6.5633578931        1.4251967611       26.1520702732
  C         6.3413064756        2.3966383543       27.6299525684
  H         6.3078814431        4.5430875794       28.1833269812
  C         8.0444948754        2.5829311411       23.0183913864
  H         8.3922385467        6.3536711532       23.0821948280
  C         8.5576929165        4.5864859358       21.9579832151
  H         5.0572994780        4.7783920358       23.9668465320
  H         4.7252260977        4.7167833195       25.6289424757
  C         3.6419629346        6.1809648765       24.6746324632
  C         5.8660514544        1.7503048623       28.8967987466
  C         8.5022507300        3.2179671682       21.8811747330
  H         8.0103245764        1.4967138802       22.9189328848
  C         8.9605268489        4.9004239705       20.6776169516
  H         2.9741968451        5.7326815743       24.0351219099
  H         3.8985970487        7.0969959518       24.0929547578
  C         2.9755662304        6.3996291639       26.0330417909
  C         5.8695851551        0.3107169474       29.2075266466
  C         5.4152863207        2.6370245130       30.1132653160
  C         9.0495046313        2.4737002086       20.6829000104
  C         9.3490697087        3.8163931346       19.9534034060
  S         9.1613117863        6.3699407170       19.8577091205
  H         2.3390364465        7.2644811433       26.0057915128
  H         3.7488018191        6.6016629867       26.8014081811
  C         2.1782842024        5.1114066404       26.4933228047
  N         6.1115742583       -0.6855928405       28.2748299916
  C         5.5573868062       -0.2237728446       30.4105426003
  C         5.1332013677        2.0164495544       31.3122557790
  H         5.1465952293        3.7160054610       30.0252485016
  C         7.9515125326        1.6555215035       19.8972813056
  C        10.3728591338        1.7013865373       20.9185320357
  C         9.6017401391        4.2054905588       18.6293081150
  C         9.5623414554        5.5272711881       18.3850322495
  H         1.6055759111        4.7089525455       25.6041179387
  H         2.8515448068        4.2736091598       26.7927516856
  C         1.2349400848        5.4202525475       27.6722092490
  S         5.8375801599       -2.1092934481       29.0221145617
  N         5.5842514170       -1.5984691409       30.4908215373
  C         5.2863804271        0.5518958612       31.5653024343
  H         4.7876097625        2.6631046301       32.0930229783
  H         7.5693153969        0.8953708832       20.5555516608
  H         8.4830190866        1.2322112490       18.9857064281
  C         6.7270442362        2.5268637453       19.5079062476
  H        10.0793106308        0.6853628898       20.7781245220
  H        10.6095939022        1.8984540660       21.9336966946
  C        11.5224267396        1.9504495738       19.9779283253
  H         9.6871664995        3.4053328142       17.8753586384
  C         9.9251386646        6.2092331343       17.0359340910
  H         0.5433270834        4.6081499575       27.7200510977
  H         0.7549200748        6.3628787746       27.5225109656
  C         2.0556653230        5.5925046708       28.9618560117
  C         4.9554994423       -0.1031451828       32.7932677184
  H         6.9581212565        3.1946508069       18.6117031775
  H         6.4978507602        3.1201734288       20.3768919050
  C         5.4080273731        1.7170839202       19.2657299346
  H        11.6841879764        2.9800465386       19.8712490720
  H        11.2986929876        1.5983897570       18.9349376341
  C        12.8492595918        1.3279118524       20.4384046338
  C         9.9273228022        7.6326119900       16.8642338439
  C        10.1019552964        5.4793922449       15.8280499474
  H         2.7844373795        4.7360400018       28.9549216735
  H         2.6875276408        6.5080290957       29.0396976359
  C         1.2485300740        5.4402099188       30.2633527419
  H         5.1321104856       -1.1718169198       32.8926285587
  C         4.5983852158        0.3969969967       34.0264052574
  H         4.7823396845        1.8349302338       20.1902108396
  H         5.4012967990        0.6604368065       19.0870321225
  C         4.6387462371        2.2821920937       18.0778306683
  H        12.6905038332        0.8486842115       21.4069876764
  H        13.2325418760        0.5646266896       19.7490475053
  C        13.9167144348        2.3686948488       20.6647798904
  N         9.6628986723        8.5405550812       17.8763770328
  C        10.1525561502        8.3104665266       15.6653574397
  C        10.4676420627        6.0557941262       14.6472127896
  H        10.0999664516        4.4354282703       15.8377680727
  H         0.3073867218        4.8333773911       30.2445578088
  H         1.8420885002        5.0923802445       31.1411466767
  H         0.8499668796        6.4114199950       30.6485954092
  S         4.3157501956        2.0202241053       34.5098182150
  C         4.3998745518       -0.5425137876       35.1985295239
  H         4.4454601378        3.4156137880       18.2830420370
  H         5.1916255185        2.2993933596       17.1318289355
  C         3.3733125412        1.4961762007       17.8462105116
  H        13.6976242586        3.2325721998       20.0782826788
  H        14.9036245797        1.9118657764       20.5033555582
  C        13.9797588577        2.8600129527       22.1514805648
  S         9.7092781911       10.0570562991       17.3287923932
  N        10.1215161936        9.7018090635       15.8119475324
  C        10.5392478057        7.5439396224       14.5584575813
  H        10.6242802709        5.3640625471       13.8286718246
  C         3.9677857650        1.4687295821       36.1315044680
  N         4.0090714310        0.1593520999       36.2807912267
  O         4.4032767747       -1.8023974575       35.1197098316
  H         2.5473838735        1.9854173886       17.3687967252
  H         3.0259675534        1.3239263517       18.8168335637
  C         3.5135271963        0.1293427157       17.1987306697
  H        14.3093838476        3.8527139424       22.2987920687
  H        12.9984176007        3.0749131559       22.5271013250
  C        14.7980120814        1.8999881916       23.0527854301
  C        10.7706719018        8.2850689391       13.3306087486
  S         3.6343647083        2.5532161764       37.4935883559
  C         3.8692225846       -0.4671179258       37.5624323929
  H         4.0875219854        0.2908258691       16.2706420143
  H         4.0331359172       -0.5215178304       17.9793605715
  C         2.2000365937       -0.5850246989       16.8789710861
  H        14.7100106606        0.9451939848       22.5598202615
  H        14.3432793632        1.7490487472       23.9861822094
  C        16.2711816438        2.2696227911       23.2497588102
  H        10.5279679374        9.2969600629       13.5135731965
  C        11.3221681580        7.9156501639       12.1014309299
  H         3.2317079536        0.0479909121       38.3002832445
  H         3.3601962818       -1.4068837466       37.4343870816
  C         5.2655702140       -0.6447120508       38.2303785452
  H         2.2695927503       -1.4133244900       16.1403014959
  H         1.5034413631        0.1906766578       16.4692586215
  C         1.6663288369       -1.2107032152       18.1332650656
  H        16.4052977248        3.3583068406       23.2820128853
  H        16.6674494215        1.7272226427       24.0934252451
  C        17.0061354102        1.7646723008       22.0328708592
  S        11.9739560870        6.3573493241       11.6450428615
  C        11.4327837811        8.8731842709       11.0119666811
  H         5.5840483533        0.1544358838       38.8245436539
  H         5.2807963969       -1.3908361482       39.0562115473
  H         6.0828050673       -0.8814349787       37.4870108453
  H         1.4767129918       -0.3431613759       18.8862129351
  H         2.1114521080       -1.9878660622       18.6503747902
  H         0.6157846587       -1.4835940836       17.9608505056
  H        16.8118399595        0.7359658156       21.8726204330
  H        18.1193806826        1.7073885958       22.1668921471
  H        16.8084210242        2.2565384627       21.1282770143
  C        12.3118648225        7.0067430655       10.0789632879
  N        12.0352851511        8.3049322112        9.9370139679
  O        10.9499659022       10.0295188021       11.0592674016
  S        13.2006145450        6.0943339457        8.7893811265
  C        11.9843916498        9.0188310798        8.6597097187
  H        11.8741084796       10.0658798861        8.9033017874
  H        12.8106972728        8.9227440352        7.9949067036
  C        10.7020691379        8.6915950252        7.8613571497
  H         9.8552484270        8.6426416866        8.5437111656
  H        10.6364040848        9.4758491216        7.0633502036
  H        10.6962773260        7.7116655014        7.4608726390
  H        20.9117979785       10.5586318483        3.3592649811
  C        21.8417428236       10.0560519899        3.4901342089
  H        21.5990014669        8.9772327565        3.5730450243
  C        22.6792122445       10.5790821815        4.7364097239
  C        22.4854002097       10.2716571764        2.1601375654
  C        21.8451123194       10.5610663552        6.0143324973
  H        23.5054900959        9.8244214275        5.0076365604
  H        23.0757733523       11.5600658157        4.7241204417
  H        22.8317910055        9.2991616507        1.8098947197
  H        23.3235192174       10.9239354992        2.3016126014
  H        21.9004687840       10.7914214421        1.3975272439
  C        20.7422694549        9.5464092692        6.2323392262
  H        22.6107250446       10.4675882426        6.8638264279
  H        21.2229454752       11.4965585289        6.2183664158
  C        20.0949085043        9.5842552903        7.6304494120
  H        21.1519125082        8.5199477064        6.1521274596
  H        20.0259554298        9.6662421530        5.4737225043
  C        19.0045844820       10.5125316348        7.6478581035
  H        20.8997038684        9.9094284374        8.3125495815
  H        19.7431293162        8.6073511188        7.9946498441
  C        17.6402619846        9.9045129535        7.4406785392
  H        19.0239116981       11.0152023192        8.5611418852
  H        19.1938574223       11.2948595026        6.8964085305
  C        16.4827453202       10.7799207168        7.1168569164
  H        17.4754269562        9.2701370722        8.2774103911
  H        17.6702834457        9.1855734229        6.5987657540
  C        16.8493179613       12.0395390366        6.3967073967
  C        16.0491562862       11.5404300974        8.3239663027
  C        15.2453783652       10.1156618535        6.5822105769
  C        16.5407789237       13.2062898188        7.1417964146
  C        17.4731710312       12.3768670141        5.1855550723
  C        16.0259800083       12.9119209985        8.4081460901
  C        15.5810852204       10.8513494039        9.3852795384
  H        15.5567520274        9.8013856117        5.5917085190
  H        15.1138173790        9.2166089082        7.1385044783
  C        14.0141115555       11.0159022222        6.3571921830
  S        16.7910120937       14.6569571805        6.2977517632
  C        17.4669133982       13.7104328044        4.9392787120
  H        17.7392118044       11.6132091811        4.4265650185
  C        15.5139952831       13.5215682195        9.5170133773
  H        15.5716907605        9.7912414236        9.4531583475
  C        15.1456205340       11.4724408501       10.5281703858
  H        14.2597097706       12.0083028894        6.0447420878
  H        13.4621612450       11.2297380835        7.3358199059
  C        12.8758133664       10.4897357265        5.4893123575
  C        17.8823888983       14.3640017749        3.7122651980
  C        15.0240767757       12.8211836270       10.6097712921
  H        15.2553356554       14.5419946004        9.5499017584
  C        14.6688586562       11.1090707569       11.7685394133
  H        11.9833787112       11.1250669262        5.5314089530
  H        12.5962209623        9.5854239373        5.9145607092
  C        13.2104882569       10.2209189967        4.0447495664
  C        17.9845255269       15.7532402196        3.4944579822
  C        18.2491230945       13.4684261429        2.5144677476
  C        14.4717855754       13.5499804967       11.8551220258
  C        14.2904201050       12.1749128815       12.5849674040
  S        14.4791197759        9.6325108559       12.5285971211
  H        13.9105532711        9.4673420485        4.0050797923
  H        13.6474619597       11.0884026846        3.5699779027
  C        12.0987143143        9.7593052014        3.1222814880
  N        17.6926143745       16.7584691643        4.4255067031
  C        18.2429271001       16.2615806567        2.2189383899
  C        18.5467861745       14.0842416710        1.3150096121
  H        18.2114263853       12.4033985570        2.4587109656
  C        13.1365824796       14.2738239279       11.7631560828
  C        15.5935906326       14.3791334404       12.5440808683
  C        13.9188719110       11.7927226987       13.8373866586
  C        13.9790989667       10.4448545186       14.0147174471
  H        11.3232762948        9.1897125349        3.7285691710
  H        11.5702200152       10.6870930724        2.7718035373
  C        12.6149992393        9.0683679832        1.8800596667
  S        17.9364686275       18.1775483401        3.7244172978
  N        18.3395894531       17.6897329286        2.2258464717
  C        18.5115126600       15.5294837329        1.0626100435
  H        18.7073677942       13.4629853042        0.4703601269
  H        13.3346796710       14.9229758376       10.9486848092
  H        13.0095928302       14.8845422558       12.6834904062
  C        11.9275788514       13.4085289459       11.3186594449
  H        15.9394563719       15.0468152885       11.7355321437
  H        15.2493080977       14.8805156794       13.4239566393
  C        16.7523775614       13.5807168860       13.0631310826
  H        13.5831955413       12.4725053198       14.5809434969
  C        13.6917359292        9.7598114672       15.2850489645
  H        11.8493029316        8.5062810205        1.3786999219
  H        13.4675200415        8.4045008214        2.1026702530
  C        13.0448704827        9.9572046593        0.7543110610
  C        18.8085489872       16.2340500459       -0.1921940245
  H        12.1666066844       13.1045572152       10.2663125996
  H        11.8895785223       12.4664669023       11.7779091959
  C        10.5163983647       14.1366933861       11.2445730112
  H        17.1329945282       12.9293441254       12.2331773911
  H        16.4211062455       12.9703488028       13.8967450202
  C        17.9149517313       14.5243107909       13.4656954645
  C        13.7377522838        8.3764021104       15.4430872919
  C        13.4717540761       10.5959081169       16.5633284602
  H        13.2858482679       11.0067804327        0.9599687465
  H        14.0004036143        9.4826212009        0.4449537538
  C        12.2462792691       10.0018805854       -0.6144853005
  H        18.5023543737       17.2918720367       -0.1314590069
  C        19.1156098029       15.8462814725       -1.4811450032
  H        10.6230340609       15.0679449147       10.6655342843
  H        10.1892366674       14.4013915940       12.2216209101
  C         9.5098083202       13.2078751940       10.6680621493
  H        18.2471974290       14.9929831511       12.6013692760
  H        17.5353256859       15.3062925617       14.0501423282
  C        19.1237649282       13.8432451929       14.1670893892
  N        13.9700832365        7.4160936537       14.4810398539
  C        13.5306634529        7.8008781023       16.6706168720
  C        13.0785362967        9.9941098346       17.7776133450
  H        13.5855932855       11.6874732953       16.5751603286
  H        11.7794832261       11.0010415242       -0.8145475374
  H        11.4380969802        9.2256388076       -0.5175625661
  H        12.8753638819        9.6813674349       -1.4417032149
  S        19.5502988679       14.2594833784       -2.0228796849
  C        19.2275602979       16.8745339042       -2.5574148505
  H        10.0569630820       12.3044254506       10.2345357636
  H         8.7358428816       12.8421681463       11.4534436569
  C         8.6401281005       13.9281376425        9.6273730667
  H        19.2282285461       12.8905972601       13.6781941522
  H        18.9471527921       13.7208496230       15.2811441603
  C        20.3681919942       14.7212710039       14.0106201615
  S        14.0606021076        5.9403791311       15.1312887072
  N        13.6964213787        6.3715123724       16.6303973752
  C        13.1037143389        8.5550595029       17.8235737214
  H        12.8514177430       10.6043911794       18.6260557721
  C        20.0105766412       14.9193117271       -3.5334969838
  N        19.7461902496       16.2484568075       -3.6478603216
  O        18.9429318184       18.0583375585       -2.5044746616
  H         8.0903337143       14.6913556249       10.1087551321
  H         9.4551676256       14.4226355247        9.0231748980
  C         7.7515405142       12.9085821650        8.8411118824
  H        21.2271274168       14.1087871880       14.1726884271
  H        20.5813109752       15.1071554270       13.0671435772
  C        20.3467151820       15.9894371673       14.9059745763
  C        12.7601694271        7.8977927555       19.0333905085
  S        20.4382545641       13.9371266547       -4.9466380329
  C        19.7894412203       16.9835761536       -4.8861111318
  H         8.3056063779       12.5677566863        7.9896066333
  H         7.5336527942       12.0875422028        9.5229073572
  C         6.3655997313       13.6053014296        8.5071920946
  H        20.2957697183       15.7542815940       15.9487694570
  H        19.4351613520       16.4890708947       14.6042532759
  C        21.4648803802       16.9828080078       14.6647785813
  H        13.1220440158        6.8827224551       18.8990475098
  C        12.1881414824        8.1783920816       20.2146144938
  H        20.6431853739       16.6140106878       -5.4541423830
  H        20.0560998021       18.0061186955       -4.7806586815
  C        18.5419686328       16.8180967072       -5.7215470842
  H         5.6678057482       13.0517356150        7.8008446103
  H         6.4446544117       14.5123374969        7.8796485808
  C         5.4287913474       14.0266921721        9.6440526775
  H        22.4357951125       16.5376601796       14.8272126046
  H        21.5735339409       17.3560244830       13.6139107183
  C        21.4368834268       18.1104732829       15.6625371442
  S        11.4442804816        9.6485854557       20.7135213833
  C        12.2031122832        7.1790911320       21.2995068815
  H        17.9041450753       16.1506570299       -5.1627719722
  H        18.8312585862       16.4544619060       -6.7321763715
  H        17.8965060620       17.7152656925       -5.7178335460
  H         5.1268119932       13.2368931336       10.2185220423
  H         5.8716878595       14.7792328092       10.3510124282
  H         4.5299243618       14.4636452336        9.2864335419
  H        20.4002338148       18.3882416897       15.8680379607
  H        21.8516642780       17.8859855242       16.6602129039
  H        22.0220261128       18.9886101118       15.3828281257
  C        11.1534434024        8.9145536442       22.2348645732
  N        11.5281479994        7.6432966186       22.3530347643
  O        12.6490569911        6.1088516019       21.2056402725
  S        10.6132258990        9.7816670557       23.6300264494
  C        11.5006791837        6.8345917876       23.5239571213
  H        11.3441498929        5.7748063558       23.2478356282
  H        10.6849548999        7.0779792279       24.1873483223
  C        12.8378216652        6.9733829399       24.3342587078
  H        12.6570207268        6.4803739543       25.3211939732
  H        12.9513515124        7.9977263996       24.5800990384
  H        13.7356514064        6.5635601173       23.8217626861
