352
 i =    95400, time =    95400.000, E =        25.1919837696
  H         9.9826657816        5.3081868236       31.9548868948
  C        10.5251083800        6.1746098017       32.1978518544
  H         9.8700638873        6.8082902875       32.7520607764
  C        10.8652565858        6.8351041074       30.8304898882
  C        11.7622432818        5.7649599075       33.0345529283
  C        10.9440944795        5.9263929489       29.6468560427
  H        10.1415037320        7.6238084250       30.6299848233
  H        11.8698799149        7.3523155479       30.9858017578
  H        12.5252259349        5.3690669445       32.3456946620
  H        12.1180498685        6.7087449649       33.5009376554
  H        11.5844038202        4.9725293415       33.7939337964
  C         9.6921922165        5.8818868801       28.7087177111
  H        11.3452981212        5.0001437996       30.0205009668
  H        11.8191593577        6.3226320397       29.1591538431
  C        10.3203111656        5.8287100506       27.3317940168
  H         9.0307953213        5.0820210624       29.0160800128
  H         9.0161785744        6.7171300186       28.9427241436
  C         9.5030054977        5.1621763400       26.3440913089
  H        11.2742390157        5.2692258597       27.4282562567
  H        10.6400494950        6.8061366572       26.9604213364
  C         8.1665216670        5.9269002318       26.0931237205
  H        10.0895235962        5.1374206718       25.4605501002
  H         9.2756846474        4.1508189108       26.6023434378
  C         7.2256999855        5.1693784315       25.2706494663
  H         7.6478230150        6.2566830306       26.9804989075
  H         8.5482720518        6.8130967953       25.6018141209
  C         6.8472598823        3.8461901462       26.0024688594
  C         7.7888184765        4.4397462922       24.1097529032
  C         6.0021309298        6.0088329587       24.8658048233
  C         7.1255469753        2.7136701808       25.2321740473
  C         6.2740907330        3.4158586075       27.1908350492
  C         7.6958914298        3.1162475868       23.9802496916
  C         8.3231119600        5.1537916028       23.0094122860
  H         5.6798519515        5.4792518269       24.0396050920
  H         6.3386025886        6.9862509223       24.4750584927
  C         4.9704141613        6.3808692984       25.9866454146
  S         6.8669121542        1.1685589308       26.0169601019
  C         6.4321121153        2.0510781245       27.3986001849
  H         5.8753226567        4.0756016335       27.9777479185
  C         8.2407084715        2.5397896871       22.8747698226
  H         8.3627285509        6.2203990552       23.0816361211
  C         8.7753574603        4.5501611269       21.9031963019
  H         4.9207746072        5.6858538138       26.7410542737
  H         5.3168694671        7.3077492327       26.5557264611
  C         3.6163382346        6.6195997780       25.3399950754
  C         5.9461770389        1.3521512179       28.6110347400
  C         8.7989171123        3.2173749725       21.8171881912
  H         8.2170091771        1.5159057236       22.6773517322
  C         9.2526022666        4.9118747819       20.7015099204
  H         3.2144630270        5.8612613403       24.6791360066
  H         3.7470668643        7.4099536141       24.6419246518
  C         2.5031316536        6.9708603620       26.3868275463
  C         6.1337212753       -0.0563788342       28.9129103070
  C         5.6840840239        2.2222433707       29.7851377243
  C         9.3724780730        2.5291051817       20.6170779829
  C         9.6028394521        3.8517570493       19.8570940374
  S         9.5767727337        6.4757865282       19.9826108043
  H         1.7154744177        7.3865254261       25.8162487362
  H         2.8256701017        7.6193927288       27.1770982601
  C         1.9569390012        5.6593254456       26.9516157663
  N         6.7159521564       -1.0321102569       28.0670917508
  C         5.7392217825       -0.6154132897       30.1723030727
  C         5.3391204161        1.6597106514       31.0631906590
  H         5.5511922102        3.2917829825       29.6802273809
  C         8.3328039538        1.7072244370       19.8699844781
  C        10.6858901735        1.6843324691       20.7729041065
  C        10.0811656941        4.3139316953       18.5847822517
  C        10.0600856988        5.6828231893       18.4750810037
  H         1.1344775576        5.3667529871       26.2708262765
  H         2.6810484390        4.8309769949       26.9825115613
  C         1.3259102295        5.6369841958       28.4098572937
  S         6.7564790632       -2.4748807515       28.8586207076
  N         6.1539000656       -1.9656173340       30.2961403206
  C         5.3334679097        0.1684195213       31.2710916931
  H         5.0329817706        2.4450878352       31.8246435121
  H         8.1999089700        0.8084509426       20.3187484797
  H         8.9442533679        1.3565617746       19.0372780395
  C         6.9865900688        2.3690726751       19.6600801518
  H        10.9853594611        1.3516650797       19.7717001210
  H        10.6765414593        0.9156908380       21.4672189931
  C        11.8479508075        2.5764663178       21.1373220222
  H        10.2929033165        3.6874215885       17.7666317407
  C        10.2247970564        6.4866277816       17.1894675857
  H         0.7276304046        4.7123175416       28.5161517574
  H         0.6493368461        6.4914281003       28.3902576235
  C         2.4283212253        5.8934504846       29.4130773552
  C         5.2634354805       -0.5747845467       32.4782712678
  H         7.1105573575        3.2295048922       18.9968203908
  H         6.5510483356        2.6845570283       20.5596781402
  C         6.0033251842        1.5470169082       18.8706310878
  H        11.4773902451        3.2697396553       21.8736304252
  H        12.1119025711        3.1689450180       20.2672107589
  C        13.0597887006        1.8402805640       21.6798801492
  C        10.2486818227        7.8625188491       17.0172133734
  C        10.5938658590        5.7302649237       15.9792689115
  H         3.2947876475        5.2478348776       29.1905828939
  H         2.7806047406        6.9822740572       29.3087901442
  C         2.0904690813        5.7320033302       30.9007662896
  H         5.0935186058       -1.6285170949       32.3058855230
  C         5.0358552881       -0.1334466713       33.7735218198
  H         5.7797053451        0.6551495013       19.3937847069
  H         6.4108044660        1.0612905009       17.9392284024
  C         4.6948599386        2.3718808031       18.7665002109
  H        12.6836024498        0.9682708130       22.2565215744
  H        13.6078085090        1.4452306593       20.8349516715
  C        13.9235930842        2.8105884096       22.5917080184
  N        10.0882937605        8.7735973463       18.0608225490
  C        10.6551826676        8.5350896913       15.8634866874
  C        10.9349597976        6.3632686350       14.8185509463
  H        10.5949374262        4.6305753289       15.9267669730
  H         1.7354264177        4.7608341624       31.1523920655
  H         3.0230910833        5.9476028104       31.4794289063
  H         1.3131883400        6.4978238874       31.0674465649
  S         5.0388468397        1.4898167503       34.2697643426
  C         4.8030289328       -1.1274584660       34.8828545812
  H         4.5959445128        3.1068625222       19.5356325347
  H         4.7064620347        2.7917043917       17.8279076603
  C         3.3953590186        1.5443060381       18.9032117997
  H        13.2516288539        3.0889341208       23.3943479584
  H        14.1460524867        3.7278841048       22.1101625597
  C        15.2020809994        2.0925660989       23.1210440723
  S        10.1786664325       10.2817649265       17.4649616909
  N        10.7578498359        9.8862766434       16.0020060741
  C        10.9489129507        7.8524081761       14.6880265898
  H        11.0070498500        5.6876701560       13.9869788313
  C         4.4513090487        0.8713624378       35.8545227577
  N         4.5413132429       -0.4543699883       36.0241465702
  O         4.7679768452       -2.3622050181       34.7255758215
  H         2.4251922876        1.9753545395       19.0177985367
  H         3.5534025646        0.9730617006       19.7724813623
  C         3.2648210669        0.6122483159       17.6745988301
  H        14.7505183182        1.3647082587       23.9007817519
  H        15.5017813927        1.4099558933       22.3508387420
  C        16.4273196438        2.9979822431       23.5547431610
  C        11.2148431806        8.6076245768       13.5417678373
  S         4.1590411636        1.7987735250       37.3775060348
  C         4.3894362907       -1.1680388141       37.3441271750
  H         3.0956321106        1.1275534347       16.7358671639
  H         4.2833693422        0.1434697735       17.5532526963
  C         2.0791177372       -0.3608093038       17.8319729670
  H        16.2440370596        3.5381022517       24.4041901888
  H        16.7024250919        3.6709871362       22.7814313274
  C        17.6054155504        2.0388257187       23.7463692740
  H        10.8284931776        9.5991878074       13.5610741391
  C        11.8556029796        8.2166966750       12.3958371641
  H         3.9703845944       -0.5552541222       38.0945460077
  H         3.6859073692       -2.0038599970       37.4114038338
  C         5.8281428451       -1.4559000347       37.7162035946
  H         1.2237402105        0.1242300836       17.5475994525
  H         2.0709349312       -0.6128368456       18.9401030788
  C         2.2686813594       -1.6928328365       17.1223681807
  H        18.3664213989        2.5262629261       24.3910752233
  H        17.3708666399        1.0996175802       24.2010457340
  C        18.2353561931        1.7726017177       22.3864616010
  S        12.5376421813        6.7442650914       12.0274044500
  C        11.7967001357        9.2054182079       11.2694573775
  H         6.1939582083       -2.3150834286       37.2468160729
  H         6.5013727988       -0.6656983837       37.5309517760
  H         5.8774201877       -1.5803498673       38.7887032432
  H         1.8346517954       -2.4840536871       17.7164425862
  H         3.2959212566       -1.9763569283       17.2164710428
  H         1.9392051262       -1.5825449224       16.0533104043
  H        19.1240934774        1.0878156553       22.5009193788
  H        18.5644040094        2.7484248618       22.0266394555
  H        17.5735389537        1.3245207597       21.6893587382
  C        12.7436355176        7.2805250372       10.3485683129
  N        12.4655304427        8.6241387580       10.2393364641
  O        11.4478917364       10.3641026764       11.3319805447
  S        13.7230545622        6.4358283690        9.1134653235
  C        12.6655428645        9.3446781310        8.9859322868
  H        12.6443843265       10.4460199476        9.0163570405
  H        13.6112444896        9.1019929752        8.6750859330
  C        11.5298274330        9.0875651197        7.9995457727
  H        11.4516175392        9.8653583137        7.2345941815
  H        11.7894028105        8.2184725334        7.4267518020
  H        10.6039737220        8.9873865469        8.5581725034
  H        22.4328942247       10.6572309123        3.0849259032
  C        23.0415486466        9.8145966332        3.3230369591
  H        22.3568176848        9.0850114102        2.9525594343
  C        23.3371426868        9.8008748600        4.8376938133
  C        24.2711786475        9.8056408959        2.4100910802
  C        22.1187289903        9.9929845470        5.7572798338
  H        23.8452366218        8.8796942194        5.0990751533
  H        24.0391503833       10.5768352805        5.0096736249
  H        24.7899778209        8.7707568789        2.2762249455
  H        24.9486355921       10.6569202124        2.6876836149
  H        23.9708826165       10.0734395036        1.4033860279
  C        21.2988666807        8.7155018734        5.9503533601
  H        22.5010626149       10.5079887085        6.6373130454
  H        21.4105484007       10.7191066119        5.4007522958
  C        20.2693270010        8.9342406316        7.1264115479
  H        22.0010387318        7.9759865445        6.2303620287
  H        20.7930842394        8.3924863779        5.0370125982
  C        18.8630234698        9.1586240521        6.5316125732
  H        20.5848942735        9.8076597234        7.7433440727
  H        20.3096550498        8.1328280798        7.8210827533
  C        17.9264407701        9.6927193619        7.5774850900
  H        19.0327748062        9.9447171075        5.8313573650
  H        18.3466846161        8.2354236710        6.1957337731
  C        16.7953512468       10.6447379559        7.1155295335
  H        18.3656420138       10.3568672752        8.3641403562
  H        17.4314502628        8.6804533067        7.9226407491
  C        17.2216914916       11.9689878483        6.4248785724
  C        16.4053290952       11.3741635605        8.3706319060
  C        15.6573440216        9.9554211961        6.3224332946
  C        17.1099692446       13.0320368353        7.2258594755
  C        17.8172738478       12.2717975202        5.2240862257
  C        16.5663645501       12.7064274418        8.4277653267
  C        15.9460878475       10.7106380180        9.5100499297
  H        16.1246262055        9.4889821263        5.4766105053
  H        15.3758927115        9.1356516403        6.9280115332
  C        14.4468762362       10.8474491057        5.8919461950
  S        17.4194729790       14.5518304103        6.4353439381
  C        17.9881840874       13.6479936355        5.0462056726
  H        18.0549022046       11.4862997246        4.5434418802
  C        16.3028888503       13.3341001361        9.6080188385
  H        15.8356844489        9.6393302960        9.5461816172
  C        15.6173047266       11.4258074838       10.6492055320
  H        14.8075582521       11.8218749596        5.5638683656
  H        13.8830558255       11.0482427257        6.7472963162
  C        13.5003793953       10.2968122618        4.7833415575
  C        18.4326228724       14.2779095280        3.7234168210
  C        15.8505818772       12.7442148864       10.7983634015
  H        16.4303881483       14.3754402509        9.7264849168
  C        15.2877493054       11.0267898209       11.9205294719
  H        12.5483077009       10.8959952244        4.8202333339
  H        13.2419772019        9.2760307182        5.0296789521
  C        14.0360936910       10.2692258631        3.3862244590
  C        18.3547115728       15.6451501633        3.3825857301
  C        18.9866066123       13.4530548489        2.5852271487
  C        15.5253144639       13.4860093268       12.0443181485
  C        15.1115529342       12.1428235148       12.7191930577
  S        14.8896350650        9.6215414727       12.7801196969
  H        14.7228026371        9.4688393973        3.2154796542
  H        14.5084718933       11.2197273427        3.1375894706
  C        13.0317611058        9.9367946046        2.3216023706
  N        17.9016150954       16.5891643435        4.2890173282
  C        18.7432207034       16.1910994793        2.1468293674
  C        19.3923170612       13.9763467118        1.3459460256
  H        19.2767746156       12.4527997147        2.7830576960
  C        14.4268958551       14.4636460844       11.9214052868
  C        16.7849427517       14.0861547631       12.6703482870
  C        14.6332830026       11.8458826509       14.0105057239
  C        14.4866455796       10.5204665056       14.1822464206
  H        12.2191658999        9.2701238491        2.5581113906
  H        12.5657766249       10.8513820031        1.9519746596
  C        13.7733588454        9.2821928802        1.1592653905
  S        18.0678411146       18.0409051832        3.6235493667
  N        18.4228825258       17.5813732702        2.1077522242
  C        19.0905935077       15.3963300269        0.9892228393
  H        19.9312538668       13.3575605780        0.6578017338
  H        14.5292102543       15.1009738563       11.0045990604
  H        14.2279462158       15.0819220254       12.8278955548
  C        13.0806330480       13.7984116877       11.6772713519
  H        17.0437911655       14.8369723950       11.9903007238
  H        16.6194457624       14.5420645145       13.6113795809
  C        17.9215452283       13.0726600202       12.8226096466
  H        14.3409701875       12.6635246290       14.6356254061
  C        14.0352454925        9.8195236136       15.3984175110
  H        14.1235305741        8.2939027749        1.4199142325
  H        14.7561661321        9.7121408308        0.9233230943
  C        12.8820433896        9.3225170533       -0.1598976071
  C        19.2470107862       16.0583578998       -0.2558329622
  H        13.2620610589       12.8614701851       11.0989142154
  H        12.7507135219       13.3894228230       12.6390945205
  C        12.0388046256       14.7658311486       11.0068360809
  H        18.3074039131       12.8533346768       11.8529521343
  H        17.5119382869       12.0732544957       13.0767498518
  C        18.9832673343       13.3776776868       13.8662024793
  C        13.9910499365        8.4132395557       15.6643415666
  C        14.0834737578       10.6929929725       16.5794506668
  H        13.0579322177        8.3903981354       -0.7772293326
  H        11.8457588460        9.1524337880        0.0847958159
  C        12.8804670039       10.5795730591       -1.0405317653
  H        18.9114277666       17.0822130833       -0.2723891199
  C        19.5792850064       15.6169060189       -1.5316247627
  H        12.6099532139       15.3760254816       10.3988614094
  H        11.4718534451       15.3920233496       11.6401072851
  C        10.9490959648       13.9950343027       10.2604786988
  H        18.5277752390       13.5598873403       14.8799150575
  H        19.6682056987       12.5545014000       13.9066513845
  C        19.9365109905       14.5457802920       13.5246841146
  N        14.2097821065        7.4061646554       14.7240613607
  C        13.6259521809        7.8728125899       16.8696468566
  C        13.6664149243       10.0842662693       17.7775676951
  H        14.2393255744       11.7651396567       16.4322016574
  H        13.3527873417       11.4329582710       -0.5383683699
  H        11.9462186838       10.8572909569       -1.4559577536
  H        13.4344195790       10.4808863871       -2.0157657801
  S        19.9269987067       13.9821063499       -1.9892321732
  C        19.6352579357       16.5896918898       -2.6443810478
  H        10.3492656425       14.6864293703        9.7078658248
  H        11.3787095941       13.3058136685        9.5811222079
  C         9.9867793815       13.1298728068       11.1145752840
  H        19.4401521388       15.4819983286       13.2418454661
  H        20.4353858316       14.2485047799       12.6556945274
  C        20.9887727736       14.8294828486       14.5789422406
  S        14.1982594867        5.9431090497       15.5088241155
  N        13.6386924798        6.4769028290       16.9280492485
  C        13.4444746285        8.6325838406       17.9805133494
  H        13.6062932777       10.7042018785       18.6331369947
  C        20.0065225121       14.6464311715       -3.6050365746
  N        20.0072782577       15.9927712642       -3.8028218773
  O        19.3721800874       17.7956540477       -2.4890816435
  H         9.9178006092       12.1236250097       10.7183565161
  H        10.2816072844       13.1227810483       12.1469878431
  C         8.6004030597       13.8474228049       11.2029006409
  H        20.5017138270       15.2089903581       15.5171102073
  H        21.5815272147       13.9145019319       14.8347933874
  C        21.9431756645       15.9015401461       13.9917762459
  C        13.0353011044        7.9402651646       19.1783559711
  S        20.3452231451       13.6242385739       -5.0194120055
  C        20.0598902626       16.7581629996       -5.0725752023
  H         7.9793816884       13.6689583777       12.1677923460
  H         8.6997259139       14.8774707006       11.2148742677
  C         7.7830739084       13.3933360636       10.0479916079
  H        22.2156134667       15.5699985585       13.0141242938
  H        22.9383112849       15.8351007873       14.4110858683
  C        21.4107101044       17.3166806768       13.8480540543
  H        13.1404860247        6.9360389877       19.1578569989
  C        12.7359207777        8.2679915622       20.5013405220
  H        20.6830815440       16.2178347408       -5.7931289474
  H        20.3675364988       17.7177603140       -4.9084989589
  C        18.7184011124       16.8237322501       -5.6765673439
  H         7.2461418045       12.4873647150       10.3429391212
  H         8.4075235690       13.0521242850        9.1853684455
  C         6.8849708342       14.3965817191        9.4880891300
  H        22.1712767361       17.9415892140       13.3348615116
  H        20.5800432538       17.2943276425       13.1173824533
  C        20.9280882860       18.0302857797       15.1004085297
  S        12.1975184513        9.7828000973       21.0235926816
  C        12.6485431506        7.1500923933       21.4691753935
  H        18.4311993834       15.8573542004       -6.0967163441
  H        18.8120594732       17.4712962244       -6.5251339665
  H        17.9293822942       17.1360783449       -5.0057951728
  H         6.5456579858       13.9281854101        8.5300818055
  H         6.0234259163       14.6369722976       10.0978922209
  H         7.3463254376       15.3113314388        9.3499014171
  H        21.2481122442       19.0537846484       15.2606156476
  H        19.8548875270       17.9141914008       15.0554096540
  H        21.3008911015       17.3667293427       15.9035958864
  C        11.8468821170        8.9535063283       22.5055195504
  N        12.0936148850        7.6506865515       22.5759990276
  O        12.9369751857        5.9603785456       21.2693406534
  S        11.2817856250        9.7607866271       23.9659010459
  C        11.8271689113        6.8388056784       23.7557768441
  H        11.6672406758        5.8323788506       23.3097320387
  H        10.9307121878        7.1975568140       24.2447699726
  C        13.1364888119        6.8989375942       24.5970924137
  H        13.5674358975        5.8861122677       24.6954824944
  H        12.8858323640        7.2193716401       25.6241549490
  H        13.9198592453        7.5064043246       24.1268321953
