352
 i =    10100, time =    10100.000, E =        24.0133202239
  H        11.5759258106        6.7218109244       32.6427525101
  C        11.4926713663        5.6150971664       32.5295995616
  H        12.4021867654        5.1745106638       32.0780130476
  C        10.4244217221        5.2177748669       31.6033206941
  C        11.3596951573        5.0256918599       33.9706305956
  C        10.4558486412        6.0680796278       30.2354470857
  H        10.4223534652        4.1394238682       31.4735844591
  H         9.4803026710        5.3144586601       32.2145842190
  H        12.3484716204        4.6472533870       34.3553659064
  H        10.9891285659        5.7959816680       34.6816451373
  H        10.6766990828        4.1628218016       33.9921356033
  C         9.5177411340        5.4703874101       29.0960819430
  H        11.4008076645        5.9865358585       29.7365413989
  H        10.1383161240        7.1451786060       30.3441760559
  C        10.3263987980        5.3495329037       27.7549248977
  H         9.3438117281        4.4267077451       29.3492841487
  H         8.5522722035        6.0027771961       29.0464110688
  C         9.3510929576        5.0466181016       26.5303246565
  H        11.1101981038        4.5722210695       27.8077944707
  H        10.7969994829        6.3229669517       27.5828243321
  C         8.1207323403        5.9210202132       26.2277199635
  H         9.9249455996        5.0925553110       25.6006210722
  H         9.1683412877        3.9789034488       26.7882615886
  C         7.0186986535        5.0152797256       25.6800946559
  H         7.7834451397        6.4792748526       27.1026346638
  H         8.2646787096        6.5676178859       25.3767043685
  C         6.7467382907        3.6709582707       26.3283835223
  C         7.3632996168        4.3391307730       24.3310780029
  C         5.7368161730        5.8466504330       25.5082120366
  C         6.8485282994        2.6120943129       25.4510537186
  C         6.3460732709        3.2562550381       27.5862975086
  C         7.3630295798        2.9930184874       24.2354443917
  C         7.8625822324        5.0460376909       23.1859327716
  H         5.9326444918        6.6925953898       24.7735374582
  H         5.5761890291        6.3814425731       26.4535981167
  C         4.5610457633        5.0612541354       25.0796872729
  S         6.4912034180        1.0406091645       26.2413129777
  C         6.2212522174        1.9189415618       27.7200855475
  H         6.2707541022        4.0140223906       28.3628444617
  C         7.8443568913        2.4114508052       23.0909588753
  H         8.0020033253        6.1277741268       23.1514157610
  C         8.3145088636        4.4425659743       21.9958934980
  H         4.6802895318        4.5555981622       24.0621860421
  H         4.3324270120        4.3046176753       25.8063531043
  C         3.2674604897        5.8022019544       24.8779402219
  C         5.8991266664        1.2605356698       29.0590836022
  C         8.3493909111        3.0977724924       21.9539761176
  H         7.6905295330        1.4396340012       22.9850632546
  C         8.8664752144        4.7861245161       20.7510330602
  H         2.5907339651        5.1642104316       24.3973486776
  H         3.3655832731        6.6959307194       24.1825501977
  C         2.5881244216        6.1609589182       26.2344091751
  C         5.9526819307       -0.1564000026       29.3770359198
  C         5.5215940137        2.1077818726       30.2238365865
  C         8.8472435630        2.3316926524       20.7571280853
  C         9.1017433945        3.6593251753       19.9960206316
  S         9.1827678759        6.2588915677       19.9838638648
  H         1.7751774651        6.8560241739       26.0544057720
  H         3.3433375014        6.6744684481       26.8319370548
  C         2.0862208913        4.9849830733       26.9767491843
  N         6.2593950702       -1.1522600369       28.4625894943
  C         5.6623352709       -0.6934331734       30.6163156249
  C         5.2142880254        1.6040613093       31.4812880903
  H         5.4106907062        3.1626993591       30.1122841851
  C         7.7947040376        1.4346659342       20.1265019119
  C        10.1549449533        1.4924216903       21.0805408947
  C         9.5521513679        4.0039052001       18.7266032419
  C         9.6528532700        5.3737446248       18.6122293997
  H         1.5386787995        4.3747490657       26.3161988474
  H         2.7863998267        4.3113267674       27.4802354779
  C         1.0929724334        5.5013352811       28.0321029207
  S         6.2995492608       -2.5879188903       29.1788686665
  N         5.8164022266       -2.1202438899       30.6255769618
  C         5.3845107172        0.1411912679       31.7462014832
  H         4.8503024135        2.2615164062       32.2198451167
  H         7.5635300870        0.5661502648       20.7352484341
  H         8.2020327999        1.1340880393       19.2043414643
  C         6.4776557799        2.1173685759       19.7343199178
  H        10.4036673248        0.9324151262       20.1539863673
  H         9.9816740093        0.8125959546       21.9103553037
  C        11.4029771954        2.3297655422       21.4022599460
  H         9.8555722150        3.2476963874       18.0321683504
  C        10.1185756645        6.0193888167       17.3290110662
  H         0.2298330927        4.8276768440       28.1053139486
  H         0.7606621851        6.4749594422       27.7143264619
  C         1.6340679903        5.5743626770       29.4622778982
  C         5.0347591260       -0.5363125371       33.0001842487
  H         6.7686844194        2.9247206638       19.0688445739
  H         6.1113935511        2.6464881392       20.5544686311
  C         5.4940963762        1.1783983276       19.0579662664
  H        11.4985260605        2.6058998252       22.4500942322
  H        11.4195589734        3.2809988694       20.9434701356
  C        12.7230737068        1.5033028191       21.0367074878
  C        10.1321825881        7.4497790930       17.1770859089
  C        10.5232559511        5.1883700321       16.1541093931
  H         2.1189815217        4.5887954790       29.5666386280
  H         2.4030268341        6.4020340470       29.5783180882
  C         0.5616450070        5.8785853778       30.4065744420
  H         5.3545769558       -1.5829267696       32.9586535439
  C         4.6671672371       -0.1108893896       34.2134833521
  H         5.3746247176        0.3855790893       19.8315613763
  H         5.8641867041        0.6665658271       18.2149286675
  C         4.1440571816        1.8886426605       18.7916616380
  H        12.7404898177        0.7275497491       21.7977662820
  H        12.6428580889        1.0297188199       20.1160968200
  C        13.9978227527        2.3102806876       21.1025649051
  N         9.8778082111        8.3107103716       18.1934739443
  C        10.5303016375        8.0462596616       16.0163212024
  C        10.7773016839        5.7970017056       14.9524399083
  H        10.5876434429        4.1018702953       16.3589628490
  H        -0.3805941983        6.1710855452       29.8695243371
  H         0.2632131708        5.0200943391       31.0195490808
  H         0.8713558065        6.5306698464       31.2423947399
  S         4.3868691099        1.5170305303       34.7304317616
  C         4.5513257397       -1.1597164168       35.2935310030
  H         4.1706784026        2.6951826723       19.4467532852
  H         4.0834800274        2.3629117790       17.8187348272
  C         2.9140393862        1.0259751994       18.9624018144
  H        13.7655537316        3.2419279425       20.5025713252
  H        14.7913667952        1.7826892386       20.6372164873
  C        14.3593984248        2.6441003763       22.5985424140
  S        10.0015603786        9.8133805668       17.5822228108
  N        10.3923827090        9.4444482689       16.0555452990
  C        10.9186096523        7.2675207650       14.8964617159
  H        11.0278101347        5.3300810179       14.0336357185
  C         4.0322914181        0.8381833141       36.2999008263
  N         4.1234355162       -0.5310841077       36.3927508489
  O         4.8292707204       -2.3310518669       35.1109583448
  H         2.0713658629        1.6281876841       19.2783727522
  H         2.9999369934        0.1969555209       19.7202642476
  C         2.5522715357        0.4876604106       17.5745040123
  H        15.1020911108        3.4773141056       22.4928559371
  H        13.4931508396        2.9100352023       23.1447787150
  C        15.2253741677        1.4374724284       23.1038512813
  C        11.2545144711        7.9676718429       13.7361388142
  S         3.4942520483        1.7750376312       37.7028920242
  C         3.9509147460       -1.2137589681       37.7136434744
  H         1.5161878099        0.2779768534       17.4370942765
  H         2.9220061228        1.1240025644       16.7336918497
  C         3.1959648058       -0.8736869332       17.3910968428
  H        15.5827857911        0.7799551158       22.3043857337
  H        14.5617328298        1.0220369607       23.8871046987
  C        16.4989289502        1.9587594199       23.8185219091
  H        10.9804572940        8.9992685247       13.8054662456
  C        11.6632667850        7.7051723801       12.5019566753
  H         3.1064740452       -0.9020326771       38.2778300824
  H         3.7259453253       -2.2677541919       37.5304361183
  C         5.2612419271       -1.2284852119       38.4877202234
  H         4.2360894107       -0.8415782227       17.6858866040
  H         3.1957922227       -1.0400879743       16.2956600879
  C         2.4941248048       -2.0175077665       18.2046258536
  H        16.3803264313        2.9284970507       24.2631302872
  H        16.8831052308        1.2807291687       24.5758588008
  C        17.6026961268        2.1128403429       22.7271675720
  S        12.2399031406        6.1315184461       12.0250778769
  C        11.6576178944        8.8608406723       11.4971428435
  H         4.9635831796       -1.5018392143       39.5345652386
  H         6.0732293990       -1.9744142993       38.2099264264
  H         5.6887614728       -0.2434629440       38.6116636216
  H         2.7765845521       -2.9348230377       17.7479623051
  H         1.4255535910       -2.0049061637       18.2328205193
  H         2.8499591351       -2.1221921967       19.2141941498
  H        18.3963454230        2.5644300683       23.2939452477
  H        17.5018108688        2.8274857409       21.9186722077
  H        17.9565604708        1.1809665409       22.3022648181
  C        12.4796624269        7.0650039794       10.4758458750
  N        12.1143061099        8.3839271248       10.3689897641
  O        11.3446944544       10.0194752011       11.6739443648
  S        13.3791435121        6.4831028473        9.1387819321
  C        12.2709836584        9.2688519269        9.2474582529
  H        12.3072732324       10.3013423149        9.5133688282
  H        13.3033448274        9.1365191870        8.8952857740
  C        11.2830548212        9.0030084317        8.1058031496
  H        11.5503203376        8.1269418622        7.5431431913
  H        10.2740413110        8.8592383465        8.5823801492
  H        11.0743742931        9.8255928156        7.4729792533
  H        20.9705646458       11.0223312775        3.6338537763
  C        21.5921136976       10.1421215651        3.5202025782
  H        21.0280698793        9.2028350947        3.6132327059
  C        22.5814243577       10.1887911509        4.6320100637
  C        22.1523026877       10.1773704297        2.1792406184
  C        22.0550156820       10.6349439315        6.1004577209
  H        23.1426337142        9.3141347151        4.6591148560
  H        23.3782670790       10.8976117228        4.2460067730
  H        22.9645800391       10.8255675709        2.0808890280
  H        21.4014884997       10.4876967657        1.4108398346
  H        22.5434909649        9.1687682088        1.9701119647
  C        21.3170357825        9.4203227423        6.6624486854
  H        22.8322398000       11.0455806415        6.7081739545
  H        21.3765158299       11.4756826788        6.0403439681
  C        20.5698124990        9.5926979676        7.9601852542
  H        22.0122387513        8.6106335608        6.8848862032
  H        20.7294385509        8.9926036867        5.8455105563
  C        19.3470431809       10.4588376221        7.7694532782
  H        21.1729095884        9.9078928634        8.7432163836
  H        20.1622158921        8.6135777644        8.3182941544
  C        18.0797972025        9.6962854523        7.2900123569
  H        19.0273088029       10.9388065660        8.6709863774
  H        19.4306010365       11.3674626315        7.2064106918
  C        16.8547795713       10.6332536537        7.0947959797
  H        17.8946355691        8.9484772851        8.0309736172
  H        18.2821195574        9.1377694381        6.3449968712
  C        17.1046977389       11.9420377935        6.4175968354
  C        16.4149633145       11.3791554235        8.3317763181
  C        15.6035711453        9.8770282484        6.5321159343
  C        16.9454108014       13.0247207270        7.2321262791
  C        17.6170724804       12.3124972257        5.1918142920
  C        16.4026431562       12.6952904573        8.4202063721
  C        15.9062160048       10.6746398944        9.4265451176
  H        15.9695514252        9.3841169557        5.6457927839
  H        15.2779017972        9.1969958480        7.2473892598
  C        14.4266112647       10.6952348746        6.1561081217
  S        17.4400780179       14.5317002172        6.5199364679
  C        17.6974088740       13.6613649208        5.0255830656
  H        17.7125937021       11.4953016789        4.4634370727
  C        16.0508810421       13.3147808451        9.6529511656
  H        15.8785301675        9.5786021088        9.4041668355
  C        15.5144409163       11.2325915516       10.6505518636
  H        14.8655262303       11.4826338871        5.5280493343
  H        13.8895217707       11.1677624463        6.9720991432
  C        13.4455781250       10.0569569528        5.1528426760
  C        18.1204883125       14.3953704269        3.7445321144
  C        15.6056954804       12.5797705383       10.7671347830
  H        15.9506357125       14.4327910382        9.7292999724
  C        15.0940426020       10.8359054614       11.9051433186
  H        12.6911390220       10.7317324251        4.9685985604
  H        12.8812463404        9.2839199006        5.5468552130
  C        14.0714538057        9.8985487331        3.7537812316
  C        17.9952746897       15.7956235055        3.4703836509
  C        18.5810392395       13.5453511041        2.6530709931
  C        15.1363407212       13.2823828725       12.0307148289
  C        14.8069742517       11.9139452948       12.7167619986
  S        14.7562338339        9.3772797339       12.7201976983
  H        14.9039419930        9.1348545380        3.7500112051
  H        14.6064496674       10.8084578862        3.4965912548
  C        13.0002072674        9.5751552524        2.6139890554
  N        17.5783902149       16.7286046450        4.4262815472
  C        18.2942449358       16.3380622582        2.2451989671
  C        18.8742165095       14.1409140845        1.4096807544
  H        18.8191696781       12.5363056953        2.7397626917
  C        13.9252336792       14.2109630262       11.6920397996
  C        16.3133623751       14.0422131887       12.7190842795
  C        14.4162583312       11.5653177123       13.9980565047
  C        14.4126298232       10.2054675822       14.1597231046
  H        13.0544636828        8.5089642745        2.3781627400
  H        11.9395748369        9.7366683421        2.8945310173
  C        13.2873339664       10.2304145606        1.2580384700
  S        17.7156916505       18.1965330751        3.8051485776
  N        18.2268834705       17.7474638221        2.3209418083
  C        18.6639414275       15.5767467523        1.1107267149
  H        19.2391938000       13.4884108610        0.5955671398
  H        14.2735669965       14.8248635071       10.8769588438
  H        13.7559809166       14.8664338976       12.5628689444
  C        12.6042279184       13.5434097799       11.3613134578
  H        16.7830900679       14.7911086702       12.1136229986
  H        15.8527935151       14.6469174966       13.5689446083
  C        17.5029276206       13.1728572163       13.2118259977
  H        14.3497292734       12.3451653638       14.7066914193
  C        14.0771603387        9.5245172874       15.4641677818
  H        14.2543443135        9.8518581658        0.9245698035
  H        13.5168901770       11.3467006865        1.2675798014
  C        12.2138815140        9.9341538025        0.1622412300
  C        18.8755863481       16.2623179530       -0.1433513526
  H        12.6127619179       12.9631598945       10.4176914944
  H        12.5159472818       12.7926359183       12.2085373208
  C        11.4233203171       14.4142243761       11.4455610496
  H        17.9850471639       12.7119549891       12.3358337690
  H        17.1474400175       12.4401803302       13.9237681803
  C        18.6801846947       13.9794209318       13.7549929683
  C        13.9351840347        8.1053403730       15.6087045231
  C        14.0260159872       10.2425715680       16.7090523104
  H        12.0519424453        8.8253689158       -0.0225419054
  H        11.2434603209       10.2807003688        0.4035836680
  C        12.6991626288       10.4794088410       -1.2058312768
  H        18.6015655005       17.3246063584       -0.2113827786
  C        19.1474788038       15.8695799371       -1.4269068434
  H        11.5453679807       15.1005007453       10.5827963999
  H        11.3463913389       14.8824248453       12.4656887977
  C        10.0924844702       13.6244486387       11.2338937148
  H        19.2377717410       14.3122460574       12.8201776471
  H        18.3173801119       14.9072906318       14.2519151272
  C        19.6106770997       13.1326645943       14.7160046489
  N        14.1348066183        7.1520486462       14.6096533009
  C        13.6090941128        7.5004999930       16.7946922146
  C        13.6810759289        9.6869164957       17.9444798607
  H        14.1823444212       11.3122429370       16.6182293427
  H        12.5499821404       11.5797624138       -1.2743594584
  H        12.2483848640       10.0841079888       -2.1551400972
  H        13.7362192110       10.2582299389       -1.5061283492
  S        19.4586623907       14.2345202981       -2.0283426257
  C        19.1734626731       16.9018956122       -2.5530285554
  H        10.3441482220       12.6009991674       11.3734012928
  H         9.2846222448       13.7204856847       11.9147624470
  C         9.6391170104       13.6975944634        9.7549414585
  H        19.5585146269       12.0177012916       14.5333611973
  H        19.1856451398       13.1719900016       15.6645035866
  C        21.0383644688       13.6113549268       14.5697076204
  S        13.9789095517        5.6708877058       15.2260464207
  N        13.5150200817        6.1351625650       16.7481041014
  C        13.3916869482        8.2387528535       17.9894891984
  H        13.8131824772       10.3464971063       18.7615960220
  C        19.5863071113       14.9261254920       -3.6544649384
  N        19.5154557412       16.2640007571       -3.7297351611
  O        18.9282436579       18.0782737395       -2.4146403569
  H         9.7884617147       14.7185602078        9.3888514956
  H        10.3502093968       13.1412181187        9.1290639412
  C         8.1881827906       13.2872661186        9.3780190476
  H        21.6497657343       12.9697808683       15.1398017594
  H        21.4252361172       13.5280435236       13.5314998406
  C        21.2630444205       15.0228466598       15.2379952648
  C        13.0844352230        7.5292520409       19.1739642773
  S        20.3397886380       14.0535501852       -4.9999558021
  C        19.5414763607       17.0125040938       -4.9809669704
  H         8.1828305821       12.9573757678        8.3356226878
  H         7.9293254732       12.4484530104        9.9326002827
  C         7.1396128482       14.3621757302        9.5709782134
  H        21.7109964719       14.9481738114       16.2377449324
  H        20.2687229793       15.3582634463       15.3816109410
  C        22.0845957641       16.0042684165       14.2384050853
  H        13.0927431591        6.4834521902       19.1653371833
  C        12.5558056585        7.9106573123       20.4088134588
  H        20.0258884941       16.6261644174       -5.8352197286
  H        19.9161576857       18.0077200019       -4.8425711571
  C        18.1428771855       17.1535298820       -5.5284884894
  H         7.0458436963       14.9568939827        8.6916107427
  H         7.2879511905       15.0857799195       10.3967895777
  C         5.7139123888       13.7173040169        9.8091051502
  H        22.7071244399       16.7427384607       14.7715131670
  H        22.6147252295       15.4271771640       13.4908319899
  C        21.1416957751       16.9448078463       13.3956842096
  S        12.2703601190        9.5473936159       21.0065571455
  C        12.2746744116        6.8388223472       21.3671297537
  H        18.0285807951       18.2248502522       -5.8398880593
  H        17.3560429150       16.8976190405       -4.8330668032
  H        17.9704301133       16.4436642684       -6.3795493527
  H         5.2997077420       13.6928106084        8.7764262424
  H         5.6406572878       12.8008918571       10.3566665192
  H         5.0800409082       14.3373289761       10.4428001116
  H        20.7043007866       17.7688362417       14.0155914221
  H        21.8477241006       17.3860385668       12.7315944185
  H        20.3369144293       16.3891372659       12.8914690437
  C        11.6753095277        8.7033462875       22.4647573235
  N        11.7082812169        7.3552019727       22.4255302209
  O        12.6767129111        5.6903790026       21.2102067177
  S        11.0016643464        9.5701639559       23.8357574972
  C        11.4767461780        6.5277147586       23.5996532731
  H        11.2042476817        5.5379497176       23.2141922724
  H        10.5765758316        6.8732064435       24.0644454989
  C        12.5663591605        6.3552484628       24.6409349759
  H        12.5946946050        5.3038162523       24.9339008597
  H        12.3153184629        6.8683473183       25.5015485674
  H        13.5004524716        6.6958439300       24.2619930665
