352
 i =    86800, time =    86800.000, E =        25.0553777221
  H        10.4020730069        6.8866712129       32.1376854925
  C        11.4190170036        6.5196258299       32.2925196247
  H        11.9524594226        7.3876620127       32.7993995343
  C        12.0236590760        6.0981629245       30.9588278761
  C        11.3053747241        5.4341847790       33.3505261354
  C        11.1577566992        5.2015837445       30.1013199021
  H        12.0629015278        7.1018609446       30.4249097883
  H        12.9752572541        5.6835073572       31.1134966140
  H        10.4178891028        5.6891134206       33.9623475900
  H        11.1711624491        4.3551363350       33.0346895696
  H        12.1436388651        5.5243583950       34.0401613203
  C        10.2202593379        6.0006365427       29.0989174926
  H        10.5531227848        4.4881718794       30.6412977780
  H        11.8265112995        4.5786080952       29.5378869263
  C        10.6273638584        5.9642328040       27.5822129466
  H         9.2221655935        5.6587328513       29.2362190432
  H        10.2319494217        6.9891714512       29.3468684860
  C         9.7571775961        5.0412655982       26.7732493214
  H        11.7159916019        5.8668818733       27.3888515082
  H        10.6092415051        6.9105307703       27.2134872735
  C         8.5093291267        5.8735205353       26.2041222943
  H        10.2287608826        4.6591264091       25.9134965712
  H         9.3830156708        4.2025908710       27.3787321663
  C         7.3647735992        5.0449396410       25.5550401553
  H         8.0394412087        6.2976875152       27.0951323731
  H         8.8098505425        6.6966769120       25.5712600312
  C         7.0795994749        3.6476951216       26.2861653172
  C         7.7980513671        4.3103271160       24.3490695563
  C         5.9978356712        5.7339742963       25.2574223158
  C         7.5301438314        2.5600233536       25.5260777038
  C         6.4638989069        3.2895842075       27.4666552083
  C         7.9181313127        2.9834366807       24.2909283727
  C         8.1150014498        4.9921260640       23.2314378611
  H         5.4724010537        4.9204766008       24.6564507751
  H         6.0661814898        6.4901962933       24.5169667464
  C         5.1723752705        6.2418456822       26.4412514291
  S         7.1406667440        1.0560519360       26.3217496145
  C         6.5534058716        1.9138714812       27.6943109999
  H         6.1630032668        4.0798820478       28.1437654611
  C         8.2886534627        2.4323525421       23.0984173829
  H         8.0222463652        6.0481359760       23.1846659153
  C         8.6947046670        4.4260257414       22.1397397230
  H         5.2196748045        5.6401518193       27.3042760333
  H         5.4258821926        7.1900087957       26.7589164469
  C         3.7087569973        6.1813558814       25.9641808615
  C         6.1240921201        1.3363574202       28.9807930361
  C         8.7308499411        3.0929338296       21.9957299729
  H         8.3402852971        1.3606320629       23.1355968700
  C         9.1062987851        4.8137829395       20.8439610550
  H         3.5430459706        5.1722472195       25.6512528853
  H         3.5317109965        6.9117258090       25.1644068671
  C         2.7000492317        6.4954236703       27.0628859504
  C         6.2978142067       -0.0494006148       29.2747417609
  C         5.7737152612        2.1792796291       30.1321811480
  C         9.1274851238        2.4558416627       20.6896478988
  C         9.3907625702        3.7778866051       19.9969635802
  S         9.3653353241        6.3813251562       20.0987119105
  H         1.7637379420        6.9577614928       26.6044493230
  H         3.1299409612        7.3801413817       27.5444335693
  C         2.4297294138        5.2286077610       27.8846425630
  N         6.5408796966       -1.0892782883       28.3768925288
  C         5.8899955901       -0.5211612663       30.5047125650
  C         5.4176917202        1.6852930648       31.3659705580
  H         5.7629609265        3.2313182898       30.1162095395
  C         7.8984130547        1.7456532093       20.1018774984
  C        10.4457419695        1.5524780685       20.6941497148
  C         9.7116204730        4.2330299464       18.7101661516
  C         9.8301779889        5.5752106692       18.6425219411
  H         1.9109051540        4.5156344687       27.2427202028
  H         3.2759894257        4.7222158167       28.3259679593
  C         1.5247825909        5.6682882016       29.0734419260
  S         6.5967283591       -2.5055119530       29.1984990744
  N         6.1427069487       -1.8500654759       30.6561363700
  C         5.4829842927        0.2914989537       31.6328697671
  H         5.2773724459        2.3370449672       32.1862364775
  H         7.6438336822        0.8434338037       20.6857491269
  H         8.2566186728        1.2788604917       19.1851107659
  C         6.6911665702        2.6342007892       19.9089187446
  H        10.5126519863        1.0683085011       19.7163215451
  H        10.5317124293        0.6931342814       21.3860846702
  C        11.6791080798        2.4124737140       21.0313214742
  H         9.9153543115        3.4863119613       17.9362496977
  C        10.1917745976        6.3700517522       17.4228202797
  H         1.0568214676        4.8060868992       29.4775336363
  H         0.6522703142        6.2710534768       28.7984310641
  C         2.3263350065        6.1970806374       30.2437265935
  C         5.4225625407       -0.2924264307       32.9451908340
  H         6.8830909662        3.4377613176       19.1898110664
  H         6.3243044770        3.0355133184       20.8622653150
  C         5.5925063045        1.9237485204       19.1074772536
  H        11.3744677197        3.0982403214       21.7724696115
  H        12.0322684986        2.9422254014       20.1302595741
  C        12.8808874580        1.5959401510       21.5213728516
  C        10.1846280593        7.7311062149       17.2813707655
  C        10.3782217717        5.6279041425       16.1831112967
  H         3.3197273322        6.6382634757       29.9088847054
  H         1.7547339544        6.8660364803       30.7959286628
  C         2.7138386643        5.1959719577       31.3085227937
  H         5.7644273326       -1.2702508561       32.9991842090
  C         5.0223279243        0.1665373389       34.1962656879
  H         5.2381059259        1.1621317251       19.7021830826
  H         6.0239293172        1.3805905259       18.3204263558
  C         4.5444925907        2.9265557924       18.6062389870
  H        12.4765717590        0.9354808438       22.2984038908
  H        13.2904665711        1.0283613987       20.6845390221
  C        14.0084246367        2.4649271533       22.0230252918
  N         9.9305326242        8.6449864087       18.3104156734
  C        10.5008230217        8.4400234322       16.1702903449
  C        10.7613114602        6.2878072567       15.0105551613
  H        10.4181325314        4.5833171588       16.2339700998
  H         3.4514374228        5.6984279571       32.0337715839
  H         1.7481073056        4.8102898046       31.7652331201
  H         3.1568742861        4.3210008160       30.8447719998
  S         4.5473673792        1.7343282624       34.5771717071
  C         5.0005719693       -0.8297978271       35.3300064058
  H         4.4123819875        3.6610610026       19.3975380218
  H         4.9498175190        3.5205451079       17.7126474406
  C         3.1679710903        2.2234835742       18.2686854051
  H        13.5115134293        3.0448122347       22.8031171046
  H        14.2856773507        3.1029494042       21.2227594626
  C        15.2684486889        1.7020172839       22.5596651426
  S        10.2271734164       10.1736043934       17.8643837420
  N        10.4547917978        9.8081178217       16.2633480155
  C        10.8105376602        7.7826189470       14.9491900387
  H        10.9093668096        5.7820715743       14.0825911100
  C         4.3062999385        1.1674311756       36.2596455223
  N         4.6460495897       -0.1435734377       36.4692403063
  O         5.0983640741       -2.0759560444       35.1782153005
  H         2.5836085855        2.8300730491       17.6111836526
  H         2.6444935645        2.0946554187       19.2152038993
  C         3.2142552523        0.8147947665       17.6331656512
  H        14.9184673578        0.8327836201       23.0671832321
  H        15.8983308808        1.3572732839       21.7294220716
  C        15.9362388332        2.4513643716       23.6966435575
  C        11.2386085730        8.5816579854       13.8249241005
  S         3.5853076727        2.1792298238       37.5905196544
  C         4.4760297888       -0.9043247888       37.7192780918
  H         2.4983815461        0.7795207622       16.7899653820
  H         4.1967933142        0.5805241738       17.1621499208
  C         2.6961502169       -0.4422472088       18.3541550585
  H        15.2692928073        2.4760177389       24.5338015967
  H        16.0479943253        3.4422629446       23.2344630675
  C        17.3536745143        1.8598305982       23.9934129679
  H        10.9892173641        9.5449760068       14.0159625901
  C        11.6622150771        8.2826919580       12.5613503406
  H         4.1618593702       -0.3383568421       38.5650798082
  H         3.8731116978       -1.7010863335       37.5334130688
  C         5.9014451969       -1.4724785428       38.0796640879
  H         1.6635243054       -0.2592759976       18.3692449498
  H         2.9239793713       -0.4340078193       19.4133911883
  C         2.9796742834       -1.7776824902       17.6126171720
  H        17.7719119360        2.4043662944       24.8832038522
  H        17.3324046591        0.7936910511       24.3222516798
  C        18.2763797867        1.9537040111       22.7645448490
  S        12.1721087389        6.7205616707       12.0392472217
  C        11.7372203878        9.3672414609       11.5820890298
  H         6.2182322812       -1.1176817879       39.0687477711
  H         5.9536727006       -2.5006219026       38.0849122342
  H         6.5975009044       -1.0995621329       37.3561150760
  H         2.3217171749       -2.5560385915       17.9820890063
  H         3.9655410688       -2.1586718133       17.5308898109
  H         2.5411869801       -1.7439455723       16.6476725480
  H        18.1538543385        2.8150929332       22.1262261277
  H        18.2370405526        1.0747536912       22.1526660365
  H        19.3196073305        2.0968776158       23.1111528461
  C        12.3102688897        7.4952527037       10.4123734311
  N        12.2095599438        8.8559945123       10.4334380963
  O        11.5797342768       10.5558264550       11.7974829685
  S        12.9821316244        6.8560174661        8.9193126760
  C        12.2968594496        9.7621168030        9.2592556087
  H        12.3481540338       10.7783302146        9.6453913549
  H        13.1900367136        9.5525788866        8.6371623176
  C        11.0405567311        9.7777912864        8.4132235496
  H        10.2058974956       10.0865850692        8.9783152819
  H        11.1625416594       10.5171681730        7.6511905732
  H        10.9277000940        8.8808432603        7.8391751499
  H        21.4481909545       11.0104146368        3.4230905273
  C        21.7944460111       10.0496545627        3.1004476446
  H        20.9200478892        9.3303943098        3.2724905419
  C        22.8422980544        9.7856340505        4.2117867841
  C        22.3285626932       10.0998726166        1.6258454398
  C        22.3423530184       10.0987399811        5.5925489651
  H        23.3601254772        8.8529100542        4.1330702005
  H        23.6494427555       10.5058091080        4.2373212986
  H        22.2425889084       10.9603991377        1.0187614031
  H        21.7035023293        9.4303238725        1.0523871754
  H        23.2748916531        9.7396282883        1.3933299542
  C        21.5944869695        8.8641656496        6.1722898363
  H        23.1556117011       10.3034237589        6.2424686249
  H        21.7102515992       10.9973985176        5.5971337735
  C        20.5988077941        9.3554611920        7.2775205324
  H        22.3015157127        8.1103191961        6.6118522688
  H        21.0776385486        8.4211752106        5.3450079218
  C        19.3265117963        9.9793701238        6.7955906869
  H        21.0217037791       10.0921535151        7.9559660587
  H        20.3852741235        8.5021953127        7.9642724717
  C        18.3874276172       10.3115954572        7.9538228515
  H        19.6267613600       10.8056279046        6.2226039074
  H        18.6526419084        9.3918955083        6.0970638982
  C        17.0071769302       10.9794619450        7.5974842213
  H        18.8679930744       11.0078701319        8.6360451002
  H        18.1264221062        9.4015467066        8.4461164879
  C        17.3439492897       12.2991904989        6.9026144548
  C        16.4700426817       11.7395339147        8.7271209952
  C        15.9954477898       10.1662639233        6.6662567123
  C        16.9972104405       13.4232838968        7.6067216915
  C        17.7634405273       12.6145916642        5.5993171131
  C        16.4941240811       13.1180309030        8.8261906392
  C        15.9963151266       11.0378543766        9.8588297678
  H        16.5819673788        9.8031260981        5.8793569671
  H        15.7073780971        9.2733494366        7.1503585693
  C        14.8393564744       10.9857025722        6.2574638829
  S        17.5036871424       14.8621594513        6.8148360532
  C        17.8994101714       13.9622211835        5.4060307351
  H        17.9466980385       11.8278603656        4.8403008384
  C        16.0801084416       13.7076424220       10.0154202870
  H        15.9624054397        9.9569753086        9.8842474366
  C        15.6845933534       11.6208220849       11.0076871283
  H        15.2117790916       11.9882044815        5.8082372560
  H        14.3132756600       11.2095528697        7.1100063635
  C        13.9282870892       10.1470732884        5.3530481861
  C        18.2251271569       14.5557300459        4.0425048580
  C        15.6467653537       12.9576170215       11.1172802117
  H        16.1613236142       14.7607918705       10.0465532793
  C        15.2950355238       11.2220035775       12.2338495317
  H        12.8803221573       10.5949528873        5.2974043324
  H        13.9061138647        9.1568893801        5.7553678213
  C        14.3961592128       10.1382281597        3.9026151477
  C        18.1495967092       15.9347169771        3.7152812806
  C        18.6734260683       13.6711346986        2.9546436804
  C        15.3019769608       13.6209316806       12.3877356795
  C        15.0335591837       12.2590365672       13.0704684645
  S        14.9324883073        9.6832832630       12.9281211660
  H        15.1641872824        9.4640547261        3.8007020639
  H        14.8152228753       11.1301952229        3.8075221040
  C        13.3102119667        9.7800321263        2.8401255762
  N        17.8471800076       16.9202452852        4.6047970369
  C        18.3411322100       16.4650354908        2.4461437997
  C        18.8528612356       14.1925697699        1.6889287155
  H        18.5430468875       12.6217318200        2.9941265236
  C        14.0073106068       14.5009072635       12.2230122778
  C        16.5455338259       14.3120824571       13.0159135095
  C        14.6444521811       11.8118645687       14.3406089651
  C        14.7318177671       10.4138808701       14.4595588806
  H        13.0724062680        8.7702706557        2.9674899862
  H        12.4455899512       10.3407837055        3.2017705802
  C        13.6115282220       10.1865609179        1.4234895468
  S        17.8123431150       18.3866668777        3.8788927735
  N        18.1713262750       17.8655610266        2.3951982425
  C        18.6605839050       15.6311000715        1.3671328474
  H        19.1279690191       13.4670978837        0.9210661991
  H        14.1348820161       15.3765707951       11.6087612044
  H        13.7562169344       14.8706753053       13.2183539042
  C        12.8150744077       13.6714082830       11.6017383821
  H        16.6594892861       15.2480868926       12.5059322980
  H        16.3295201145       14.5624784648       14.0093535984
  C        17.8198357214       13.5062862104       13.0156498515
  H        14.4048745588       12.5180123931       15.1319009423
  C        14.4046447395        9.5667037202       15.6562251034
  H        14.4914853825        9.6205366828        1.0460241692
  H        13.9302968265       11.1997091138        1.2986028483
  C        12.4793235111        9.7750666860        0.4017616588
  C        18.7721964657       16.2255171872        0.0946679147
  H        13.1410236216       13.1735487836       10.6524198429
  H        12.5145656885       12.9449741173       12.3687637171
  C        11.6081224219       14.5552837327       11.2373842829
  H        18.3498046437       13.6453216029       12.0152365132
  H        17.6035975772       12.4819112669       13.2007354988
  C        18.8874203666       14.1020646066       14.0952001363
  C        14.0691762932        8.1556543745       15.7377271421
  C        14.1789666789       10.3336748781       16.9878271996
  H        12.5347525409        8.6608121077        0.3925859363
  H        11.4999604086       10.0481927163        0.6849384047
  C        12.6382660435       10.2051755233       -0.9878076881
  H        18.7163413038       17.3059873002        0.1335943935
  C        19.2074454827       15.7906363559       -1.1678182040
  H        11.9009508890       14.8278500869       10.2093483890
  H        11.4231741223       15.4709461289       11.7892451243
  C        10.2911705217       13.7221702398       11.0852294481
  H        19.1057638364       15.1443688717       13.8569632853
  H        18.4903958640       14.2278126312       15.0894674371
  C        20.1248662693       13.2276697119       14.1592010128
  N        14.3584471325        7.2668077034       14.7537728434
  C        13.7453585196        7.5425350579       16.9636747820
  C        13.6600552340        9.7408890427       18.1439847225
  H        14.3977191111       11.4103348066       16.9993829184
  H        12.1634974868       11.1174287937       -1.1813628891
  H        12.3538011227        9.4854300732       -1.7324538129
  H        13.6996781083       10.4240581782       -1.1008653252
  S        19.4996011642       14.1011652429       -1.6228785442
  C        19.3935557833       16.7450595769       -2.2763587575
  H        10.5172227400       12.6579447122       10.9844059452
  H         9.7308061377       13.7530282379       12.0196290477
  C         9.4830764174       14.0703659098        9.8096552247
  H        20.5133314875       13.0851239783       13.1268088975
  H        19.6539400663       12.2818194925       14.3972675116
  C        21.1774421226       13.7526575755       15.1578208510
  S        14.1252769026        5.7692269201       15.3229655003
  N        13.6188914958        6.1617359316       16.7926715593
  C        13.4304451053        8.2753221296       18.1351921281
  H        13.5132519755       10.3624721065       19.0170527928
  C        19.7543837766       14.7889524995       -3.2375698463
  N        19.6824865025       16.0618973348       -3.3673799171
  O        19.1548605279       17.9532079905       -2.1277617259
  H         9.0055380772       15.0803182480       10.1053219558
  H        10.1412323941       14.1280394681        8.8832640855
  C         8.2706028955       13.1719891534        9.4831029254
  H        20.6540646801       13.9531017820       16.0549464475
  H        21.8771709720       12.8915266722       15.2772439005
  C        22.0368029092       15.0382347674       14.7710360504
  C        13.1037986219        7.4239008908       19.2798869875
  S        20.1964731803       13.7793891749       -4.6378193367
  C        19.6334952679       16.7925559700       -4.6079681731
  H         8.4861889500       12.2921038234        8.9574450015
  H         7.8305660887       12.8495247572       10.4251750038
  C         7.1731450906       13.9860485666        8.7202498823
  H        21.8672655802       15.3903641170       13.7567570779
  H        23.0843050031       14.8680754178       14.7766923699
  C        21.8326708533       16.2599201935       15.6948287376
  H        13.2994680282        6.3595555546       19.3169659120
  C        12.7125891519        7.6904449661       20.5724440091
  H        20.1815282310       16.2207154131       -5.2965808925
  H        20.1553168749       17.7203570696       -4.4273002151
  C        18.1695234564       17.0055321116       -5.0728241454
  H         6.7760940414       13.5618545661        7.7693372486
  H         7.6793747882       14.9038694230        8.3256215085
  C         6.0876655789       14.2688898235        9.6976282506
  H        20.7907116042       16.6752575329       15.7003141892
  H        21.9704511177       15.8440279889       16.6800534534
  C        22.8111219522       17.3721104635       15.5111118403
  S        12.0455907556        9.1911064293       21.1176904524
  C        12.5436383695        6.5442037703       21.5088166944
  H        17.4175187865       17.3303016878       -4.2967571828
  H        17.6987129656       16.2858456810       -5.7417148170
  H        18.1659596567       17.8515297138       -5.7738988430
  H         5.5331335213       13.2402727997        9.8292367733
  H         6.5152392913       14.6197673852       10.6435090345
  H         5.2854795894       14.9672035925        9.2491480999
  H        22.4094725202       18.2551864952       16.1178898644
  H        23.7663248449       17.1120447401       15.9072637666
  H        22.7359030962       17.6387975530       14.4802247473
  C        11.8364629573        8.4070874119       22.6949511486
  N        12.0312630039        7.0792996713       22.6501854727
  O        12.5791569778        5.2947125943       21.1673562657
  S        10.9887413722        9.2424958384       24.0131878824
  C        11.6029122491        6.2065035312       23.6651081838
  H        11.1437455014        5.3317084447       23.2863290059
  H        10.9443749070        6.7134729746       24.3481725215
  C        12.8252711227        5.7227728793       24.4541367382
  H        12.8584439865        6.2460711630       25.4461683177
  H        13.7789362360        5.8437744229       23.9457434400
  H        12.7363131455        4.6659708245       24.5784505498
