352
 i =    45600, time =    45600.000, E =        24.9785727191
  H        10.8595427848        7.5963573070       33.1644839660
  C        11.3765521489        7.0232459909       32.3959763553
  H        12.2762306049        7.6154633691       32.0970671067
  C        10.4170274894        6.8579540017       31.2275593238
  C        11.6914365640        5.7744515143       33.1195413306
  C        10.9933849301        6.0756758507       30.1329279766
  H         9.5426602160        6.3026135297       31.5449979594
  H        10.1962169204        7.8259281666       30.8889815128
  H        12.0150791304        5.9902338994       34.0886788908
  H        10.9204681994        5.0201212829       33.0826280401
  H        12.4442771610        5.2280825318       32.5208131277
  C         9.9759980651        5.9266584549       28.9929647275
  H        11.2935298109        5.1028713780       30.5564940101
  H        11.8717725743        6.6019745615       29.8176007180
  C        10.5948362043        5.7605393162       27.6005743954
  H         9.2732305707        5.1762862036       29.1387889053
  H         9.3793196723        6.8567251738       28.9763677031
  C         9.5887072156        5.0388747272       26.5971578282
  H        11.5137272960        5.2305742837       27.7158443164
  H        10.7968375267        6.7641548675       27.4409483712
  C         8.2547456198        5.8820672275       26.3751364423
  H        10.1046494638        4.8398334776       25.6587862928
  H         9.3145045869        4.1410376603       27.0531831534
  C         7.1160540221        5.2047331243       25.4967015559
  H         7.8575062875        6.1629718738       27.2994468216
  H         8.7097621841        6.7979998392       25.9364068154
  C         6.6963375250        3.8752371253       26.1711586586
  C         7.6347634156        4.5197528223       24.2443656781
  C         5.8886364505        6.1070331585       25.2897649834
  C         7.0801524297        2.7500202385       25.4105145556
  C         6.1295168860        3.4670030170       27.4093301965
  C         7.5967159816        3.1296120065       24.1933590715
  C         8.1175476733        5.1946479696       23.0584086730
  H         6.2092728252        6.8674682492       24.6308111375
  H         5.6423945266        6.5070664938       26.2781162732
  C         4.5488020590        5.5134927709       24.8376988928
  S         6.9133977769        1.2444244820       26.2599694556
  C         6.1548961232        2.1115177032       27.5921766700
  H         5.6669683839        4.1569912035       28.0951329223
  C         8.0609946917        2.5320009043       23.0734797615
  H         8.1271444030        6.3080088315       23.1363594067
  C         8.5963288004        4.5898015517       21.9979473677
  H         4.6734900170        5.0728175607       23.8172759950
  H         4.2582018106        4.5881338704       25.3342155875
  C         3.3423944267        6.3778841024       24.8729108642
  C         5.6644807033        1.5249508790       28.9165917462
  C         8.4981396202        3.2549327275       21.9381924510
  H         8.0601846601        1.4215058707       22.9600567855
  C         8.9596668350        5.0305438667       20.7144580662
  H         2.6850534870        5.9543990093       24.1881697697
  H         3.4124589144        7.3969155612       24.5866811524
  C         2.5661142570        6.3636508099       26.2374579655
  C         5.7480871680        0.1648203711       29.2080187872
  C         5.2027883113        2.3843199140       29.9956044345
  C         8.8834203191        2.5584107116       20.6742191286
  C         9.1719667390        3.9423957202       19.9455337346
  S         9.2207566294        6.5906501888       19.9750683395
  H         1.7878840446        7.0214022448       26.1215246830
  H         3.2275368037        6.7376561410       27.0125792010
  C         1.9415383095        5.0671251040       26.7613653449
  N         6.1368989320       -0.7856770420       28.2735127632
  C         5.4165043840       -0.3648294657       30.4787909774
  C         5.0100313122        1.8815406545       31.3303874771
  H         5.1826549997        3.4734146603       29.7982122824
  C         7.8887381827        1.7181673133       19.8707166742
  C        10.2104051012        1.8413805256       20.9360069158
  C         9.6600515323        4.3729016676       18.6556685989
  C         9.6072791308        5.7457219189       18.5274659006
  H         1.2503501405        4.8195259020       25.9540762828
  H         2.7382173498        4.2247291357       26.8919872284
  C         1.1673432581        5.1963780786       28.0800964206
  S         6.1297597580       -2.2407305847       29.0716626387
  N         5.6330148355       -1.7630788411       30.5226419405
  C         5.1107603669        0.4508865589       31.6353697867
  H         4.6501117059        2.3575235073       32.1855802647
  H         7.6866767262        0.8055920227       20.3736578380
  H         8.3780122873        1.5657216876       18.8915943094
  C         6.6061011155        2.5031946591       19.5944745928
  H        10.6229218153        1.3274594187       20.0550320996
  H        10.0770560544        1.0830938844       21.6684287236
  C        11.3391516797        2.7124268951       21.5068768415
  H         9.8347417525        3.6277680902       17.8548615798
  C         9.9077857609        6.5416885548       17.3121215120
  H         0.6320266272        4.3031781205       28.2279581232
  H         0.3570649871        5.9323588164       28.1034464652
  C         2.0709954157        5.4585637742       29.2903391680
  C         4.9715990186       -0.2025500913       32.9262918159
  H         6.8702329519        3.2566031790       18.8509246231
  H         6.1988526687        2.9494198680       20.4489049466
  C         5.5165781760        1.5786206439       18.9838172668
  H        11.1564534677        2.9197170682       22.5769362356
  H        11.4935284715        3.6314705866       21.0320811514
  C        12.7482995951        2.0002366781       21.5668080967
  C         9.8872718312        7.9324216134       17.2096423312
  C        10.2250135740        5.7639104481       16.0777807929
  H         2.8166766073        4.6805268291       29.3496439191
  H         2.6744555271        6.3671463104       29.1366427086
  C         1.3497206756        5.6415186032       30.5467613016
  H         5.2113622175       -1.2478550980       32.8170221878
  C         4.5879894481        0.1903564278       34.1946545656
  H         5.2914721751        0.8464916873       19.7812074806
  H         5.9514190827        1.1272600968       18.1283255386
  C         4.3758002910        2.4622098143       18.4803039138
  H        12.7606260572        1.7218967716       22.6227735221
  H        12.7398352909        1.0700190051       21.0084890284
  C        13.9640573376        2.8763599043       21.2503054429
  N         9.7211917221        8.8514498197       18.2360010969
  C        10.2290716158        8.5251811656       16.0126058368
  C        10.6882200447        6.3761072700       14.9483313718
  H        10.1391559871        4.6875130023       16.0977573213
  H         0.5222374982        4.9060401134       30.6098740279
  H         1.9912963735        5.5870812698       31.4715357394
  H         0.9610629187        6.6815822390       30.5532915665
  S         4.2537805794        1.8376010140       34.6170292248
  C         4.4929300594       -0.8053916563       35.3195317695
  H         4.2773019038        3.3296004423       19.1956380253
  H         4.6678331599        2.8749936084       17.4832539469
  C         2.9458676341        1.8770357546       18.4863432248
  H        13.7894455738        3.7265112845       20.6397747561
  H        14.6864117170        2.2378440533       20.7040644265
  C        14.7552081752        3.1774362710       22.5923488032
  S         9.6729606678       10.3658438732       17.5464586633
  N        10.3244841821        9.9526683502       16.1224392897
  C        10.6916690720        7.8613474852       14.8864499506
  H        10.9356205265        5.6955787916       14.1022735292
  C         3.8389982000        1.2629644159       36.2176043688
  N         3.9575732008       -0.0722880488       36.3810953808
  O         4.8160942702       -2.0305911962       35.3056595691
  H         2.3426128100        2.7424410045       18.2424269744
  H         2.6537675423        1.7487462047       19.4995945586
  C         2.7537085229        0.7419512970       17.4605801817
  H        15.5306008957        3.9303603531       22.4161944872
  H        14.0878422917        3.6001197054       23.4238436572
  C        15.3798055600        1.9684587989       23.2525351138
  C        10.9621829629        8.5461412203       13.6913050469
  S         3.4420436123        2.3237331243       37.5733226046
  C         3.9443842829       -0.6928253888       37.7262333221
  H         2.2473196974        1.2357644096       16.6306658446
  H         3.7012589996        0.3799151147       16.9678469172
  C         1.7307739226       -0.3366712386       17.9077352193
  H        15.4159868463        1.1418501955       22.4604702886
  H        14.8166676206        1.7264552863       24.1425153017
  C        16.8167126441        2.2570006457       23.7429052453
  H        10.8177156365        9.6325119507       13.6613630882
  C        11.4090692271        8.1964936930       12.4683524654
  H         3.1289103694       -0.2815875746       38.3270361228
  H         3.6571006047       -1.7434488662       37.7576010940
  C         5.3327784341       -0.5680433132       38.3466230579
  H         1.0665900439       -0.7934245866       17.1323631971
  H         0.9141186968        0.0334008966       18.4949127139
  C         2.4006796391       -1.5051381622       18.6514819372
  H        16.7251108593        3.1660188422       24.2735160372
  H        17.2291945963        1.5805825432       24.5299599006
  C        17.7826502799        2.1895077104       22.5189241176
  S        11.8880746248        6.6377903059       12.0391857862
  C        11.6080359176        9.2571055471       11.3967849588
  H         5.2471226546       -0.2155615224       39.3246400270
  H         5.8543242039       -1.5342603934       38.3233593405
  H         5.9776908822        0.1193634227       37.7759744779
  H         2.7323226499       -1.3384318271       19.7260404802
  H         3.3623402621       -1.7313608710       18.3002322261
  H         1.7352859336       -2.3891033119       18.5265893707
  H        17.3943358687        1.4484504764       21.8152231889
  H        18.7622370932        1.8635954363       23.0019675779
  H        17.9367756296        3.1596934022       22.0781648500
  C        12.1357785952        7.2732682662       10.3868311170
  N        12.1091927417        8.6368438067       10.2722065323
  O        11.2806631394       10.4309870858       11.4716164663
  S        12.5355377380        6.2783344117        8.9580055955
  C        12.1874036620        9.3625608290        9.0042192587
  H        12.6588494946       10.2934713725        9.2174130558
  H        12.9171821795        8.9244983677        8.2835902181
  C        10.8089032344        9.5125448140        8.3638768544
  H        10.0120698834       10.0047991632        8.9358182600
  H        10.6852065255       10.0641630397        7.4167930646
  H        10.2903682163        8.5987347975        8.2632916506
  H        20.8860158325       11.2650059307        3.3398313079
  C        21.5280685575       10.3888741911        3.5512675105
  H        20.9012020246        9.5109336256        3.8766815812
  C        22.5175286536       10.7475527835        4.7215557636
  C        22.2207483432       10.0079676463        2.2011001058
  C        21.7192313234       10.9094723916        5.9985237312
  H        23.3090341038        9.9943458792        5.0180331585
  H        22.9774223019       11.6750213523        4.4695144269
  H        22.7890300266        9.1782881413        2.4511912601
  H        23.0025329902       10.6680870419        1.8142836032
  H        21.5504862069        9.9664271695        1.3305647974
  C        21.3480529677        9.5911534161        6.6295104301
  H        22.2536111987       11.5117237423        6.7905940775
  H        20.9355067541       11.6339964274        5.8719770259
  C        20.4389305636        9.7245136361        7.9402347228
  H        22.2117121519        9.0514122558        6.9004437395
  H        20.7872766461        9.0124721054        5.9265342847
  C        19.0910037707       10.5420680964        7.7458857277
  H        20.9196660804       10.1951335985        8.8059497127
  H        20.1696621108        8.7669088145        8.2931713619
  C        17.8813741353        9.7431273654        7.2778668434
  H        18.7035253968       10.9651206596        8.6962773870
  H        19.3001766749       11.3776854529        7.0951773137
  C        16.5102542848       10.5541090394        7.2046919615
  H        17.7118101397        8.8057332281        7.7262800744
  H        18.0979736450        9.4552376581        6.2150761433
  C        16.8075030430       11.8789032212        6.4735396445
  C        16.0036507580       11.3200187393        8.3840150412
  C        15.3705930748        9.7436617953        6.4951893257
  C        16.5070828167       13.0160539621        7.2405136192
  C        17.2827017061       12.2121928597        5.2018619602
  C        16.0432092401       12.6680608333        8.4495837058
  C        15.4936753094       10.7450426148        9.5063905396
  H        15.8530476155        9.3100080998        5.6410374233
  H        14.9219638755        8.9669415967        7.0775487470
  C        14.2279146877       10.6118414452        5.8147388047
  S        17.0820998315       14.4751826427        6.5353488672
  C        17.4873193109       13.5601186833        4.9948372236
  H        17.4307735041       11.4265473511        4.4888169695
  C        15.8154056634       13.3043568179        9.6148148359
  H        15.2357801685        9.7639309075        9.4940503801
  C        15.3009881087       11.3588416022       10.7024232145
  H        14.6063087833       11.4967937122        5.2007587818
  H        13.8471403122       10.9932232440        6.7222090710
  C        13.1078246560        9.8798432281        5.1333939167
  C        17.8637380340       14.2487333380        3.7213313689
  C        15.4740899771       12.6819119198       10.7549503578
  H        15.7355582581       14.3978440909        9.6236223673
  C        14.9167751283       10.9881303444       11.9723893384
  H        12.1719021847       10.4427859003        5.2259668235
  H        12.9776899112        8.8534162253        5.5418673667
  C        13.3282167617        9.7789033189        3.6313476461
  C        17.7211418940       15.6416907025        3.4143110825
  C        18.2586452096       13.4241272911        2.5247099269
  C        15.1607818143       13.4505209822       11.9909752137
  C        14.8469185590       12.1238736563       12.7474283070
  S        14.4897202750        9.5378160993       12.8001619669
  H        13.8239014285        8.8491557128        3.5362077411
  H        13.8655921417       10.6783645048        3.2571752477
  C        11.9880343028        9.6569343482        2.9167628801
  N        17.5022042998       16.6790900180        4.3309775149
  C        18.0252058517       16.1969307346        2.1363207905
  C        18.5227661557       13.9929977783        1.2501549841
  H        18.2881873586       12.3542435141        2.5811715306
  C        13.8408612745       14.3003079974       11.8625403787
  C        16.3425917836       14.2270875190       12.6008566814
  C        14.4469681597       11.8146992848       13.9909337012
  C        14.3474024062       10.4541279136       14.2333683819
  H        11.3353975180        8.8989786258        3.4052220525
  H        11.6785589433       10.7010630930        3.0191146447
  C        12.1409989888        9.2793238697        1.4290205735
  S        17.3914910936       18.1434964296        3.6121963466
  N        17.8521312295       17.6032141931        2.1427617877
  C        18.3393817176       15.4255455095        1.0269041344
  H        18.7751602608       13.3720206546        0.4010122193
  H        13.8863488312       15.1613141994       11.1872126446
  H        13.7337904488       14.8252718909       12.8288111447
  C        12.5754653013       13.6373320614       11.2932374196
  H        16.7404417537       14.8544739311       11.7836463024
  H        15.8998167124       14.8992995558       13.3016446747
  C        17.4987330240       13.3667296044       13.0715469436
  H        14.3201107312       12.6294375786       14.6623358463
  C        13.9852831367        9.7958303577       15.5375033508
  H        11.1931986116        9.4781000456        0.9959200555
  H        12.2608947966        8.1931432265        1.2953028837
  C        13.2769203765        9.9220409305        0.6746121599
  C        18.5377780843       16.1507046498       -0.2041756690
  H        12.8175786616       13.1241984517       10.2493589924
  H        12.2460975079       12.9520375498       12.0294854519
  C        11.5402184244       14.7057883565       11.1928113765
  H        18.3314685701       13.4388836170       12.4032899584
  H        17.2995380311       12.2998710541       13.1134160693
  C        18.2245903752       13.9352066695       14.2640285108
  C        13.9128516976        8.4130505999       15.8023856623
  C        13.8357341128       10.7179446832       16.6271278331
  H        13.8185621064       10.7898675784        1.1231228977
  H        13.9918412980        9.1469274219        0.4558292077
  C        12.8442996891       10.3177541150       -0.6872628201
  H        18.4441578532       17.2521598807       -0.1532386064
  C        18.8439641284       15.7372213207       -1.4481121001
  H        11.7393237961       15.3685606316       10.3415026001
  H        11.6206773442       15.2794852841       12.1087782790
  C        10.1512507910       13.9868416939       11.1721452869
  H        18.5432545265       14.9343361022       13.9309929350
  H        17.5623370062       14.0496391139       15.0525742568
  C        19.5053326865       13.1696578077       14.6922692668
  N        14.1524506116        7.4670586560       14.8623892661
  C        13.5836418352        7.8827345686       17.0545116618
  C        13.4422771819       10.1709906344       17.8766543690
  H        13.9269845145       11.7398128546       16.4520783807
  H        12.1340475387       11.1710767458       -0.6819591696
  H        12.3322271607        9.4767654553       -1.1599072381
  H        13.6875514343       10.4621350719       -1.2856897428
  S        19.0875360157       14.0993757693       -2.1027171851
  C        18.8595301937       16.8048614749       -2.4843626612
  H        10.3086259785       12.8867159624       11.2901168364
  H         9.5397258076       14.2641630104       12.0842881085
  C         9.3120469679       14.2556482751        9.9131113368
  H        19.4982242631       12.1875240290       14.2854730192
  H        19.6164883439       12.9700700614       15.7801668946
  C        20.7419335498       13.8905126134       14.1785711351
  S        13.9838516719        6.0023831294       15.5298426831
  N        13.5514981952        6.5005946360       17.0397545744
  C        13.2825281358        8.7202190637       18.0708832060
  H        13.2961946295       10.8144691121       18.7288758746
  C        19.2920323093       14.9299423740       -3.6734324631
  N        19.1641936101       16.2925380609       -3.6285352278
  O        18.5677575069       17.9831806997       -2.3000429471
  H         8.5283487362       15.0110890384       10.0897230639
  H        10.0217327859       14.6800166075        9.1420266573
  C         8.7299129729       12.9847910283        9.2829960098
  H        21.5435094056       13.1927990747       14.0798985031
  H        20.5290506363       14.1382795789       13.2041248434
  C        21.0886400426       15.0709633447       15.0272737400
  C        12.9633535076        8.1262058186       19.2739938966
  S        19.7188901620       14.0487496199       -5.1983062673
  C        19.1340028605       17.0407310518       -4.8517583791
  H         9.3714413548       12.6690263779        8.4564175603
  H         8.5788722899       12.0880724743        9.9773098965
  C         7.3054061409       13.2799869879        8.7535340060
  H        21.8877415469       14.8645345034       15.7106933986
  H        20.2357052877       15.2933944101       15.6415157822
  C        21.4962350681       16.2954874380       14.2279314331
  H        13.3506076508        7.1487439720       19.4710253422
  C        12.3387082617        8.5763281916       20.3967170731
  H        19.9996022529       16.7891761149       -5.4176297485
  H        19.4011483311       18.1013398058       -4.5505157702
  C        17.8023485262       16.8110167641       -5.6025542276
  H         7.0465245782       12.4093049436        8.1322986506
  H         7.4605961283       14.2228228557        8.1369886734
  C         6.1602637441       13.6139594654        9.6737132191
  H        22.3619104659       16.0644073500       13.5958255376
  H        20.7877994524       16.5664154942       13.4406293907
  C        21.6821691589       17.5371080072       15.0911444253
  S        11.4448188457       10.0013785764       20.5183674042
  C        12.1571988920        7.5290498759       21.4761232123
  H        18.0666820951       16.1824286277       -6.4168401142
  H        17.3861398189       17.7413319858       -6.0626234939
  H        17.0054871490       16.3391709710       -5.0821482313
  H         6.0850671655       12.8230680199       10.3326640964
  H         6.2203744579       14.5707929584       10.1764869792
  H         5.2040775926       13.7255962404        9.1543056446
  H        20.6946473093       17.9685462855       15.2207428749
  H        22.2018690849       17.2433369987       15.9829798458
  H        22.3889105029       18.1774547612       14.5204941040
  C        11.0929664713        9.4087134901       22.1771841222
  N        11.4284798185        8.1170212393       22.4338293808
  O        12.7077616664        6.4094238639       21.5364591111
  S        10.0778571287       10.2010842092       23.3455366804
  C        11.3362061147        7.3814956301       23.7311865014
  H        11.4758128604        6.3219329261       23.6889128497
  H        10.4016371869        7.5050005198       24.1565731458
  C        12.4024053359        7.8082409847       24.7349205400
  H        12.7665426890        8.8274234159       24.3675182314
  H        13.2049797517        7.0775585505       24.8049095828
  H        11.9463172809        7.8289416989       25.7131477472
