352
 i =    25900, time =    25900.000, E =        25.1277778874
  H        12.0846988274        7.3467228377       32.2162607340
  C        11.7873390132        6.2867564137       32.3751356337
  H        12.7302308050        5.7596622273       32.3316891702
  C        10.7660191297        5.8721212746       31.2174809210
  C        11.2636228370        5.9425506236       33.8226077207
  C        11.2551281418        6.1815234564       29.7705713967
  H        10.4633608573        4.8769474740       31.3466417126
  H         9.8473793358        6.3861283623       31.5102582347
  H        10.3367965820        6.5394841881       34.0851928870
  H        10.9425866922        4.9336043170       33.6812306427
  H        11.9941198865        6.0288067103       34.6020645705
  C        10.1659933795        5.9542333765       28.7469772229
  H        12.0819167145        5.5157128737       29.4104974940
  H        11.6820066379        7.1810011681       29.5223921047
  C        10.6394450685        5.8054377712       27.3361329880
  H         9.8333997688        4.9109873921       28.9060893236
  H         9.4265249574        6.7293015303       28.7688072418
  C         9.6423047390        5.1194865797       26.2610586315
  H        11.6021141581        5.4148307679       27.3610362428
  H        10.7133274650        6.8561690184       27.0296647341
  C         8.4784995641        6.0360937342       26.1129893671
  H        10.0737679852        4.7760905893       25.3512220206
  H         9.1933507235        4.2681374872       26.8295777227
  C         7.2452349224        5.3223783508       25.4622053646
  H         8.2266888550        6.3133838954       27.1347572365
  H         8.7031332286        6.8629063892       25.4986078136
  C         6.9118751561        3.9813631104       26.0892285132
  C         7.6798841712        4.6343750746       24.1870399819
  C         6.0740247908        6.3269510612       25.3427254691
  C         7.1238920801        2.8815150576       25.2582043921
  C         6.3195134117        3.6209479425       27.2945665173
  C         7.5575984019        3.3146560482       24.0331732519
  C         8.1103717218        5.3399339659       23.0888644376
  H         6.3517379404        7.2312647816       24.7010453813
  H         5.9385581723        6.5523711890       26.3849811438
  C         4.7900518082        5.6439639201       24.7301312231
  S         6.7352114520        1.3478050536       25.9821491582
  C         6.1663701815        2.2575027333       27.4359981710
  H         6.0180044278        4.4153510512       27.9564761463
  C         7.8142154294        2.7058456568       22.8495615765
  H         8.0670325217        6.3805838951       23.1214987905
  C         8.4936261794        4.7450353830       21.8963175629
  H         4.8911172892        5.4847256196       23.6878931186
  H         4.6007639048        4.6705176914       25.1996699669
  C         3.4519477974        6.4998223240       24.8202964938
  C         5.7699910909        1.5441908870       28.7290680586
  C         8.3107106844        3.4006893543       21.7048328362
  H         7.6175784855        1.6935783450       22.6887041125
  C         8.7657374801        5.1544812683       20.6082014474
  H         2.6927693232        6.0494900703       24.1554720026
  H         3.5226208065        7.5462961911       24.3074371496
  C         2.7737495684        6.6353741618       26.1823961594
  C         5.7687582370        0.1660567890       29.0504079334
  C         5.4792851049        2.4546910150       29.8523537816
  C         8.5870696323        2.7167292591       20.4594087714
  C         8.9246820640        4.0544339088       19.7322940674
  S         9.1602797235        6.7074138516       19.8468939967
  H         2.0039842139        7.4017936184       25.9511014783
  H         3.4126476931        7.1445973635       26.8949387187
  C         2.1727547864        5.3287237805       26.7232530854
  N         6.2351644853       -0.8184534259       28.1451830834
  C         5.5856098050       -0.3476335689       30.2879909508
  C         5.3181332184        1.9284112373       31.1260878405
  H         5.4431830273        3.4984265213       29.8157865210
  C         7.3947484592        1.9526917995       19.7556907062
  C         9.8866809845        1.8762263535       20.3536466082
  C         9.2612827019        4.4902062928       18.4467260204
  C         9.4096397539        5.8342733692       18.2949694427
  H         1.5073064174        4.8838288990       25.9927365869
  H         3.0096061862        4.6168431625       26.8119269430
  C         1.4568465730        5.6103440473       28.1234362420
  S         6.1366436097       -2.2946435046       28.8531828034
  N         5.5473925053       -1.7732919528       30.3145510282
  C         5.2236723429        0.5022732037       31.4119846998
  H         5.1000846660        2.6536179362       31.9300292707
  H         7.0408734402        1.1819118985       20.4363564460
  H         7.9047520154        1.5182854572       18.9066693956
  C         6.0911715697        2.7869538411       19.3854299218
  H        10.2139037278        1.9505213052       19.3222865340
  H         9.7020352226        0.8329100685       20.4570081177
  C        10.9543982160        2.3421664450       21.3002721957
  H         9.4279586903        3.7861228332       17.6730462478
  C         9.8182691639        6.5048038480       17.0134932920
  H         0.9861500878        4.6567646676       28.3353705789
  H         0.7062434279        6.4062473508       28.0575489536
  C         2.4831498126        5.7209436244       29.3413420794
  C         5.0471556158       -0.0504933254       32.6959899778
  H         6.3016836056        3.4970686089       18.5464716587
  H         5.7914450823        3.4187656561       20.2075517790
  C         4.9773718697        1.9974982652       18.7411948586
  H        10.6122408424        2.1778877457       22.3406619738
  H        11.1782027383        3.4000323784       21.1994684614
  C        12.2859601498        1.6115930741       21.0221900417
  C         9.9213654421        7.9057606887       16.8330895166
  C        10.1648311872        5.6852277757       15.8068553811
  H         3.2800570115        4.9443389729       29.3937013413
  H         3.1410529302        6.5102079850       29.1763056795
  C         1.9257547201        5.6589361995       30.7654314868
  H         5.0381657588       -1.1057305533       32.6608133326
  C         4.8268786167        0.4968483780       33.9276191632
  H         4.5359322326        1.3915420346       19.5245735945
  H         5.4049645087        1.3901441328       17.9533083527
  C         3.8998076947        2.8692822394       18.1299255354
  H        12.4912797255        0.9739160486       21.8773993675
  H        12.1363446878        0.9885329494       20.1331080400
  C        13.3187160883        2.6649901679       20.7015358536
  N         9.7593927009        8.8308581734       17.8373581241
  C        10.1522245341        8.4895132946       15.6042400910
  C        10.4609688265        6.2857830800       14.5501861129
  H        10.1904981255        4.6045788061       15.9022239084
  H         0.9968637337        6.1474420924       30.7521719065
  H         1.8958939669        4.7003011459       31.3330580865
  H         2.4667730557        6.3210611222       31.3352905223
  S         4.6846266586        2.0885176805       34.3879287531
  C         4.6830235586       -0.5129476934       35.0328345247
  H         3.7209477346        3.6954980282       18.7572031660
  H         4.1739949233        3.2360245456       17.1791865059
  C         2.6189797420        2.0559254971       17.9981146951
  H        12.8603340001        3.4437583900       20.0847462639
  H        14.1231458187        2.2024240829       20.1671480607
  C        13.9495980460        3.2792715085       21.9453946575
  S         9.7095490457       10.2895428042       17.1414005588
  N        10.1921931603        9.8468112238       15.6547376535
  C        10.3814292927        7.7475435211       14.4224957423
  H        10.8462128279        5.6042779369       13.8003227658
  C         4.4494852028        1.4490060566       36.0561817709
  N         4.3433170971        0.1132956582       36.1847652185
  O         4.6136033793       -1.7538739538       34.8917364504
  H         1.7614035204        2.6922266330       17.7456900855
  H         2.3163436198        1.7335007924       18.9895321892
  C         2.7636812658        0.8621270335       17.0356001276
  H        14.6126548763        4.1110687829       21.7615386637
  H        13.2071744803        3.7188186365       22.6508797994
  C        14.7638088355        2.1543696680       22.6151486836
  C        10.6306094802        8.5527196743       13.2681238011
  S         4.1424735503        2.3656303177       37.5284413530
  C         4.2616681105       -0.6079421463       37.4321559167
  H         2.5691974422        1.2345621905       16.0300206571
  H         3.7249820833        0.3629916991       16.9319312147
  C         1.8852333390       -0.3402526830       17.4138706898
  H        14.9331937138        1.4440011656       21.8660374722
  H        14.1559398455        1.6906731666       23.4020508814
  C        16.0524684812        2.6337379269       23.3706457340
  H        10.2068035645        9.4885988556       13.3062095677
  C        11.2972134287        8.2304250041       12.0881329614
  H         3.5233338271       -0.1122911998       38.1395315281
  H         3.9021765067       -1.5980850462       37.2327341788
  C         5.6306883666       -0.6685156147       38.0788272098
  H         2.1671061873       -1.1558924612       16.7204154565
  H         0.8677850645       -0.0628553771       17.1628535044
  C         2.0038564719       -0.9489156639       18.8266651649
  H        15.7337614823        3.5552617298       23.8005883495
  H        16.1478233940        2.0223657586       24.2714354038
  C        17.3002448233        2.4176315451       22.5058088895
  S        12.1155589486        6.7405969031       11.7114515701
  C        11.3876836969        9.2608973554       10.9898397741
  H         6.4714272824       -0.7641031457       37.3355951025
  H         5.7714443893        0.1870069574       38.6579956365
  H         5.5328707741       -1.5495558264       38.6800082410
  H         1.3438138452       -0.3892430276       19.5021865006
  H         2.9865879857       -0.9381195973       19.3129330772
  H         1.7354057880       -1.9677723378       18.7359495985
  H        18.1295238200        2.1288053664       23.1968338939
  H        17.6330165564        3.3153873057       21.9576445032
  H        17.0989657250        1.6510640896       21.7754916510
  C        12.3586953398        7.4154093221       10.1097984224
  N        12.0903712135        8.6946132029        9.9789847712
  O        11.1066152110       10.4231760086       11.1364801522
  S        13.0746252723        6.4788992990        8.7901377519
  C        12.2151704271        9.4766580361        8.8038524067
  H        12.6997438869       10.3711936212        8.9733976112
  H        12.9925333313        9.0171593223        8.1441541946
  C        10.8599186551        9.5523147219        8.0741015080
  H        10.2398921456       10.2235832907        8.6385380645
  H        10.9420291637       10.0462971773        7.1209447482
  H        10.3613047355        8.6219775731        7.8807659449
  H        21.1906312700       11.6815865991        3.2466607893
  C        21.5817708821       10.6581891741        3.1154475136
  H        20.8177220851        9.9238746807        3.1860829041
  C        22.4478358558       10.4661724003        4.3432616949
  C        22.3682339935       10.6617862772        1.7493515348
  C        21.6619612194       10.5324347588        5.6730847395
  H        22.9450741965        9.4718701052        4.1848728861
  H        23.2751968936       11.2106710026        4.2790632732
  H        22.1045630667       11.4786527791        1.0859368097
  H        22.2632171401        9.6932400206        1.3056625119
  H        23.4620454320       10.7602171289        1.8721139486
  C        20.8635151280        9.3599811132        6.2150757489
  H        22.4966759691       10.6067979800        6.3579223731
  H        21.0349118383       11.4286627957        5.6163702695
  C        20.0138762340        9.6344190149        7.4810383520
  H        21.6460745610        8.5571674915        6.4489154775
  H        20.2568679577        8.9689178076        5.3771148487
  C        18.9083652743       10.6407565234        7.3950452084
  H        20.6545667291       10.0583805530        8.2261848555
  H        19.6155896971        8.7129205064        7.9130285803
  C        17.6528837763       10.0190854543        6.8136388662
  H        18.8210598060       10.9704805672        8.3740611178
  H        19.1432602797       11.4590648811        6.7773676656
  C        16.4488800630       10.9815766509        6.7714372288
  H        17.2673858448        9.2179843637        7.5106800268
  H        17.8458152237        9.5720900781        5.8966510909
  C        16.8057751367       12.3477255183        6.1614751326
  C        16.1129614941       11.5661699427        8.0537665089
  C        15.3517020092       10.3302220619        6.0464791334
  C        16.7625671246       13.3993047418        7.0486080805
  C        17.2995909933       12.7939525535        4.9088936032
  C        16.2621910169       12.9252448592        8.2668931706
  C        15.6057512116       10.8745325178        9.1769172030
  H        15.6917745280        9.7139021660        5.2496696969
  H        14.8104077423        9.5796684028        6.6757746289
  C        14.2911047659       11.2345573481        5.5108189251
  S        17.1960389075       14.9397593737        6.3828205183
  C        17.4788171489       14.1008686440        4.8489761444
  H        17.5042724199       12.0969416295        4.1194361015
  C        15.8456812090       13.4979116294        9.4296511151
  H        15.4669958100        9.8227886708        9.0133398366
  C        15.2686394032       11.4555308381       10.3695535066
  H        14.7133527138       12.0367956755        4.8902877726
  H        13.8472718856       11.6573860134        6.4128565238
  C        13.3257159791       10.5221589175        4.5772525544
  C        18.0377132937       14.7853963870        3.6383027514
  C        15.3666988947       12.7814210995       10.5604092697
  H        15.9410098665       14.5257122164        9.7117146942
  C        14.7695872110       11.0998629041       11.5636933213
  H        12.3898514568       10.9607038237        4.7297618761
  H        13.1768158175        9.4600483549        4.8534456463
  C        13.8195026637       10.5792084060        3.0869594656
  C        17.9756827863       16.1826895444        3.4013406620
  C        18.6036369522       13.9175157635        2.5975720984
  C        14.9969642750       13.5247090925       11.8214694573
  C        14.6753402287       12.1632267137       12.4393760261
  S        14.3593205155        9.5265335131       12.2835106703
  H        14.6828003341        9.9623469498        3.0560584691
  H        14.1335095561       11.5686564991        2.7326965540
  C        12.6998336872       10.0805041328        2.1334709142
  N        17.4817960958       17.1445621172        4.2924594458
  C        18.2437817363       16.6921753029        2.1482916549
  C        18.7336010068       14.4397434147        1.3366462726
  H        18.6612761000       12.7996666412        2.6101649570
  C        13.7030343311       14.4515266565       11.7383329532
  C        16.1770141347       14.2126905453       12.5007806503
  C        14.2586179859       11.7495435237       13.6983606581
  C        14.0741355062       10.3921228178       13.7741590967
  H        12.1841023422        9.1682908526        2.5053695848
  H        11.8673155435       10.7890539154        1.9973979980
  C        13.2573369844        9.9142910867        0.7008626624
  S        17.3881906541       18.5534094120        3.5157391030
  N        17.9741278301       18.0955359913        2.0152037602
  C        18.5716310496       15.8823122447        1.0256170821
  H        18.8723970675       13.7803373222        0.4949339525
  H        13.9788479886       15.3116367800       11.1174399303
  H        13.3027235214       14.6264299267       12.6673007279
  C        12.5828526071       13.8625136266       10.9114264958
  H        16.3921859875       15.1473758967       11.9262952783
  H        15.8633937880       14.5045177921       13.4951220530
  C        17.4037887672       13.3697421726       12.7805573534
  H        14.1506247248       12.5197427861       14.4244172466
  C        13.7448592007        9.7081178938       15.0913699024
  H        14.1845861100        9.3123630041        0.8304116979
  H        13.4599818545       10.8921210878        0.3283310282
  C        12.3310506316        9.3624107046       -0.3600692195
  C        18.6924454590       16.4544615783       -0.3031396180
  H        12.9650995719       13.5926327100        9.9358993254
  H        12.2791759919       12.9114350528       11.4461773070
  C        11.3699471721       14.7194456987       10.7534929561
  H        17.6682888004       12.8566128342       11.8763355539
  H        17.0823206332       12.5718715556       13.4849513500
  C        18.5788894340       14.1375686020       13.2753887596
  C        13.6505652816        8.3056069288       15.3817941052
  C        13.5719100679       10.6015098234       16.3068504529
  H        12.9584193102        8.8814177887       -1.1296786253
  H        11.7927578603        8.5010966371        0.0842045816
  C        11.4128228130       10.4588343093       -0.8723408702
  H        18.4816704495       17.5520649036       -0.3035537714
  C        19.0149488969       15.9088921581       -1.5338873258
  H        11.4874804287       15.4406709661        9.9400185969
  H        11.1136856676       15.3150923377       11.5908855449
  C        10.2674057888       13.8104488638       10.3598001312
  H        19.2507553857       14.3730645463       12.4648252028
  H        18.2065935366       15.1015921010       13.6482901072
  C        19.3017688628       13.4717589268       14.3964821967
  N        14.0266239955        7.3334968034       14.4143814746
  C        13.3741332269        7.7484866452       16.5970831265
  C        13.2578861409       10.0124137213       17.5612383601
  H        13.6793079650       11.6547407679       16.2472874700
  H        10.8589497613       11.0608186288       -0.1088549625
  H        10.7237527702       10.0389193564       -1.6335430065
  H        11.9878243279       11.2686865899       -1.4059245450
  S        19.3007199753       14.2149328300       -1.8960443746
  C        19.1698831022       16.9047920499       -2.6223365368
  H        10.5487944302       13.1220554024        9.5019727713
  H         9.9498251846       13.2230493189       11.1873130382
  C         8.9861220361       14.5235882547        9.8234777251
  H        19.5061384617       12.4012093795       14.0948992653
  H        18.6407920355       13.3073896496       15.1987457577
  C        20.6163537403       14.1494439913       14.8217339510
  S        13.7590942357        5.8714119131       15.0792666306
  N        13.4439056309        6.3543350692       16.5967454389
  C        13.1949179477        8.5605722687       17.7100186718
  H        13.1402443805       10.7403205774       18.3430517659
  C        19.6417907971       14.8118273023       -3.4884900689
  N        19.6694814958       16.1937723437       -3.6500341299
  O        19.0099865444       18.1317244921       -2.4893195119
  H         8.5960820535       15.2765057846       10.5162257049
  H         9.2981083924       15.0011379337        8.9322295494
  C         8.0147265329       13.5165467808        9.3351584858
  H        21.1712157765       13.4716852260       15.3964374314
  H        21.3411946946       14.2535816217       13.9536667226
  C        20.3867572474       15.5551715042       15.3739791873
  C        12.8088160597        7.8884939010       18.8885600026
  S        20.2198001154       13.9282657239       -4.8456516634
  C        19.9052038093       16.8513268409       -4.9616149409
  H         8.4213084845       12.7370099189        8.7330026515
  H         7.5578372381       12.9337666563       10.1637121126
  C         6.8539307145       14.1277721581        8.6072504238
  H        21.0211478506       15.7552367468       16.2573495523
  H        19.3503953592       15.4804701038       15.7324552979
  C        20.5978317840       16.7720897934       14.4118773767
  H        13.2165862494        6.9135493458       18.9603426442
  C        12.2733295208        8.2925752725       20.1266043911
  H        20.7042101630       16.5361060940       -5.5467938134
  H        20.2109754751       17.9308954009       -4.8279360745
  C        18.6875197283       16.8294139482       -5.8365848526
  H         6.6920834171       13.6119156477        7.6712039377
  H         7.1747221069       15.1568759148        8.2193258008
  C         5.5451125698       14.1776320902        9.4628353228
  H        20.2913230373       16.4023084918       13.4113054370
  H        19.8406230943       17.5122746750       14.6827808940
  C        22.0520216662       17.3143905427       14.3893459590
  S        11.6877033504        9.8213748602       20.4937808204
  C        12.0273342553        7.1865235564       21.1819467426
  H        18.0459570290       17.6956598319       -5.7319089271
  H        18.1192844095       15.9689018444       -5.4798306396
  H        18.8458906160       16.7836861786       -6.9593973335
  H         5.6963797963       14.6597567936       10.3867271179
  H         4.9060985229       14.7454282330        8.7805935287
  H         4.9731039663       13.3168281704        9.6720028976
  H        22.6913332252       16.5414374162       14.7662211774
  H        22.4877965518       17.4787474208       13.3223257931
  H        22.1404104261       18.2407450831       14.9473645048
  C        11.3013834918        9.1228041748       22.0788491367
  N        11.3704091287        7.7563555750       22.1814972575
  O        12.3273529218        6.0496542444       20.9848394327
  S        10.3157320164       10.0185222297       23.2876333785
  C        11.0159100891        7.0350595664       23.4466799536
  H        11.0369247462        5.9935114469       23.2127012990
  H        10.0822827070        7.3272359168       23.9469452296
  C        12.1843722478        7.1795457804       24.3934928125
  H        12.2007937176        6.3787165132       25.1623863336
  H        12.0017017815        8.1337830945       24.8278397017
  H        13.1197306294        7.2207046174       23.9029311841
