352
 i =    38000, time =    38000.000, E =        25.3142286276
  H        12.1704603576        6.9386735159       32.7180161501
  C        11.7698416350        5.8734816699       32.4609397149
  H        12.5743158963        5.0400261204       32.2740965475
  C        10.7191641625        6.0858331280       31.3572360230
  C        10.9989556019        5.4087310996       33.7083857820
  C        11.2843587477        5.7702551405       29.9898968266
  H         9.9245952405        5.3588229869       31.6210241350
  H        10.2430960957        7.1528835863       31.3565802121
  H        10.2930374005        6.1925228787       33.9479090449
  H        10.5704039755        4.4096119165       33.6587380597
  H        11.6680404637        5.4458157455       34.5533382553
  C        10.1540004933        5.5822016444       29.0021273963
  H        11.8347591826        4.8770518212       30.0757349232
  H        11.9034925987        6.6073132106       29.6723644130
  C        10.6288877711        5.8104220059       27.5682913926
  H         9.8423636352        4.5770141757       28.9768181889
  H         9.3053387459        6.2579793894       29.2095683013
  C         9.6438430811        5.0547627367       26.6226013744
  H        11.6395987936        5.3849035822       27.5110163146
  H        10.8476381118        6.9094852786       27.3405262949
  C         8.3266865060        5.9170125722       26.4547299959
  H        10.1576423105        5.0188382479       25.6511531392
  H         9.4062838462        4.1055261219       26.9315491804
  C         7.2193487232        5.2130894121       25.6416441243
  H         7.9207206281        6.2546487020       27.3669768308
  H         8.4641951395        6.9231697142       25.9196478891
  C         6.9890432832        3.8747259863       26.3615909895
  C         7.6726049174        4.5982391074       24.4176511792
  C         5.9903513016        6.0635988545       25.4962685376
  C         7.1757140958        2.8216245417       25.5142465675
  C         6.3989909616        3.5849017316       27.5739450898
  C         7.6656081103        3.2879947980       24.3004184037
  C         8.2706986294        5.2844374529       23.3127475975
  H         6.1926233477        6.7955225370       24.7867595789
  H         5.7902302266        6.5680497167       26.4773137438
  C         4.7938318269        5.2474306600       24.9683091586
  S         6.7212362421        1.3463439581       26.2834249091
  C         6.2383033461        2.2278898901       27.7176863564
  H         6.1717291682        4.3889339022       28.2807278449
  C         8.0733910850        2.7010072352       23.1563579826
  H         8.2938317235        6.3076142730       23.3571316516
  C         8.7351139849        4.7191146032       22.1196094483
  H         4.8161302991        4.8763691183       23.9586563447
  H         4.6310262382        4.3337006767       25.5359692596
  C         3.5133166423        6.1002181625       25.0387268479
  C         5.7641579555        1.4602928880       28.9069934556
  C         8.5051848802        3.4323154633       22.0079371447
  H         7.9139146112        1.6279307738       23.0421537568
  C         9.0692874121        5.0855644043       20.8196191067
  H         2.7595137652        5.6816952195       24.3929316013
  H         3.7219527614        7.0341763546       24.5145331882
  C         2.9164644859        6.2145980572       26.4048852471
  C         5.6935877196        0.0605086498       29.0556777862
  C         5.5085820388        2.2980625973       30.0940103546
  C         8.9322965888        2.7324438855       20.7225737367
  C         9.3019339504        4.0180134270       19.9921122602
  S         9.3611367159        6.6017533973       19.9584428776
  H         2.1686098306        7.0049278569       26.2547444819
  H         3.7240710400        6.5447636092       27.0737085293
  C         2.3258061218        4.9245875351       26.9375334571
  N         5.8935470769       -0.8538887189       28.0771677471
  C         5.4153915569       -0.5363150018       30.2834210685
  C         5.2006015313        1.7121671076       31.3051679207
  H         5.4372829534        3.3212560228       29.9856701033
  C         7.7530209819        1.9176785842       20.0896619884
  C        10.2220189310        1.8681062066       20.8164740641
  C         9.6632380340        4.4170186879       18.6982069000
  C         9.6360189477        5.7409026969       18.4667859818
  H         1.8367009009        4.3622059594       26.2088397013
  H         3.1137797552        4.1902052174       27.2822266734
  C         1.2739424061        5.1462173187       28.1003281809
  S         5.7820987247       -2.3486055676       28.7958685625
  N         5.3453433984       -1.9385678799       30.3065414645
  C         5.2042076351        0.2152766507       31.4535361830
  H         5.0197515014        2.3963946991       32.1531729016
  H         7.4598210305        0.9713995071       20.6709100624
  H         8.0072590068        1.4334498086       19.1140448555
  C         6.4933871987        2.6292046787       19.6508334749
  H        10.2723419370        1.3469556365       19.9207768989
  H        10.1203617908        1.1940045955       21.6683108724
  C        11.5328843076        2.6172054175       20.8301795406
  H         9.8537964852        3.6419037553       18.0240622658
  C         9.9403643047        6.5521393579       17.2320144435
  H         0.8150034863        4.1328494542       28.1565234093
  H         0.3482596980        5.7221090058       27.8507144877
  C         1.9618593626        5.7128182670       29.3667452116
  C         4.9169983371       -0.4749349474       32.6560290149
  H         6.8757011657        3.3558211494       18.9534932521
  H         6.1713464081        3.1208170322       20.5509188685
  C         5.4414101377        1.6871732272       19.0554590944
  H        11.3484195282        3.3840697742       21.5455008965
  H        11.7069433097        3.1351271932       19.8854931851
  C        12.7175408448        1.7350651859       21.1722424153
  C        10.0565141345        7.9232151664       17.0730046489
  C        10.1549687430        5.7402084161       15.9774986863
  H         2.8402017531        5.1081735129       29.5320143788
  H         2.2483613640        6.7628701128       29.1911147367
  C         1.0780944819        5.7650874208       30.5160812794
  H         4.9378518470       -1.5193073563       32.5698102870
  C         4.5311710232       -0.1143734178       33.8893657339
  H         4.8421439227        1.1934628534       19.7994064052
  H         5.9717913846        0.9029618660       18.5510595523
  C         4.5463230704        2.3283931383       17.9957919576
  H        12.5698750372        1.3518294479       22.2527571400
  H        12.5990850442        0.8751453504       20.4631702786
  C        14.0303297314        2.5047392433       21.1242749045
  N         9.8302522452        8.9079488995       18.0293983075
  C        10.2241225747        8.4427533705       15.8398752514
  C        10.4873209675        6.2727827158       14.7633886322
  H        10.1332500513        4.7119248804       16.1339242985
  H         0.5040506361        6.7005828405       30.6151086132
  H         0.3554768402        4.9483619082       30.4440748861
  H         1.7081294225        5.5642933401       31.3590449054
  S         4.1870386339        1.4368065132       34.4590712334
  C         4.4624812867       -1.1376406851       35.0132767635
  H         4.8081174664        3.3812078530       17.7889452093
  H         4.9576454612        1.7496778473       17.1368392095
  C         3.0342826116        2.2038184358       18.3149536718
  H        13.9644516313        3.2887783598       20.3800236978
  H        14.7818579911        1.9110112420       20.6649646888
  C        14.4598151686        3.0706400247       22.5330633444
  S        10.0454361728       10.3889675627       17.4781187135
  N        10.2621182117        9.8864238028       15.9034632382
  C        10.5642160355        7.7385798597       14.6386200863
  H        10.5756617775        5.7022006306       13.8836045576
  C         4.3467100888        0.7948368449       36.1194837371
  N         4.2316955504       -0.5264120743       36.1655323638
  O         4.7096232429       -2.2809383502       34.7840604387
  H         2.5346645855        2.7840821303       17.5616472744
  H         2.8038225387        2.7257647357       19.2554214780
  C         2.3700338902        0.8454827285       18.1928466148
  H        15.2665654416        3.7886025706       22.2511476735
  H        13.6088109688        3.5635084234       22.9506036531
  C        15.0016095414        2.0331440115       23.5018893113
  C        10.8939978948        8.4639602571       13.4530780365
  S         3.8704349868        1.7650181427       37.5255796904
  C         4.1986060307       -1.2862798677       37.4171266268
  H         3.0203802423        0.1522874265       18.8208708547
  H         1.3994964427        0.9401955892       18.5649657981
  C         2.2072205699        0.4461223374       16.7527477548
  H        14.9722472051        1.0134590510       23.0873581435
  H        14.3728381594        2.0309861964       24.4209129495
  C        16.4547969825        2.3677171646       23.8859516445
  H        10.6086101289        9.5087452306       13.4711279773
  C        11.3941095336        8.1428770139       12.1823673845
  H         3.5904349882       -0.7954115481       38.2004084620
  H         3.8247117458       -2.2934430842       37.3689181852
  C         5.6753085886       -1.4029614333       37.8080497335
  H         3.2084359208        0.3310601258       16.2972911814
  H         1.7479830715        1.2198771317       16.1147364724
  C         1.4083737919       -0.8507338446       16.4779999675
  H        16.4869918396        3.3007568612       24.4190398521
  H        16.8266225565        1.6396213823       24.5907602211
  C        17.5154796467        2.3436210075       22.6898979829
  S        11.8797467921        6.6178199998       11.7284437548
  C        11.4762062986        9.2163034326       11.1673642377
  H         5.8795543238       -0.6669806334       38.5618871104
  H         5.7617923740       -2.3328876170       38.2697602910
  H         6.3815794077       -1.3239989372       36.9910650411
  H         0.7125237540       -1.1150565532       17.3222198773
  H         2.1380548775       -1.7008931960       16.2081497647
  H         0.7571865000       -0.7791958801       15.6308550508
  H        18.4051733863        2.8057350049       23.0984020726
  H        17.0816048837        2.9612139532       21.8354790459
  H        17.6381782038        1.3355780968       22.3392824780
  C        12.4227161350        7.3611980518       10.2108091966
  N        11.9797541244        8.6627614355       10.0376156994
  O        11.1504801702       10.3796238717       11.3368209013
  S        13.2949304595        6.5526006411        8.9133176283
  C        12.0531555980        9.3900484377        8.7216713254
  H        12.4276410504       10.4259287978        8.9078755361
  H        12.7096600793        8.9041152789        8.0691172309
  C        10.7590400719        9.4953668044        7.9045034977
  H        10.8101560908       10.4640369184        7.4129712491
  H        10.5889143882        8.7256714971        7.1209861003
  H         9.8156983423        9.4988765482        8.4282862516
  H        20.6277175090       10.7146052663        4.1281604022
  C        21.3603935544        9.8877060554        4.0766230749
  H        20.8550394056        9.0220383323        4.2548938679
  C        22.4729545332       10.0454854929        5.1005620263
  C        22.0321429930        9.8391196350        2.6789897003
  C        21.7780007501       10.2957861164        6.4330890296
  H        23.0305861035        9.0873343200        5.2191205941
  H        23.2334828563       10.7356382027        4.6535353476
  H        22.3328079436       10.8514240816        2.4772299710
  H        21.3373886719        9.6082564440        1.8455917018
  H        22.9020435283        9.2143767442        2.6800316695
  C        21.0920537533        8.9854468418        7.0744771016
  H        22.6338992223       10.7311979952        7.1724704207
  H        21.0375856083       11.1074959569        6.4200795659
  C        20.1874806170        9.3420018147        8.2337918915
  H        21.8517934337        8.2449664793        7.3190403902
  H        20.4057541932        8.4379590261        6.4618547041
  C        18.9793651195       10.2797026713        7.9613823781
  H        20.8393454122        9.7912267943        8.9743342458
  H        19.6813596094        8.4225429542        8.4406027198
  C        17.7472300583        9.5036543844        7.4013454441
  H        18.7030466716       10.6890118159        8.8969534518
  H        19.2108779663       11.1483973804        7.3935023697
  C        16.5509244042       10.4129023512        7.0838110088
  H        17.5248629334        8.6811836601        8.0957246507
  H        18.1381693102        9.0909562293        6.4665038717
  C        16.9559760865       11.7100175461        6.3884357456
  C        16.1451132128       11.2028691731        8.2442574825
  C        15.2561576862        9.6813102501        6.5377996309
  C        16.7739850715       12.8752541943        7.1397934338
  C        17.4864580742       11.9669079606        5.1095643624
  C        16.1654479185       12.5428837422        8.2411491884
  C        15.7669170674       10.5358180796        9.4444251896
  H        15.5888574485        9.2851547489        5.6232020754
  H        14.9628021524        8.8450241884        7.1313015831
  C        14.0029301905       10.4961490600        6.1993183545
  S        17.2990400041       14.2983695604        6.3698662514
  C        17.6390231655       13.3123393728        4.9173638263
  H        17.7707665525       11.1459157486        4.4643276766
  C        15.7863471652       13.2124245627        9.3911674890
  H        15.7300156271        9.4534649105        9.4721338959
  C        15.3820804306       11.2585675029       10.5327858720
  H        14.2964249982       11.4314559840        5.8344273640
  H        13.4855687443       10.8186310108        7.0780708116
  C        13.0871624488        9.7664992328        5.2323005548
  C        17.9603879204       13.9335549962        3.6372121718
  C        15.2925286478       12.5923959860       10.5286545612
  H        15.9733791560       14.2570230080        9.4094591871
  C        14.9565904222       10.9321817589       11.8182077867
  H        12.1650891307       10.2759311855        5.3015596240
  H        12.7096439746        8.8489507743        5.6788604482
  C        13.5838752853        9.8341092504        3.8201545112
  C        17.8168628141       15.2768506456        3.2859266894
  C        18.3073140622       13.0175610915        2.4920391681
  C        14.8545875359       13.3779425138       11.7289574687
  C        14.7219618134       12.0943962818       12.5448169346
  S        14.7515335148        9.5494490697       12.7191535528
  H        14.3003124105        9.0305692917        3.7037233809
  H        14.1580871256       10.7713820715        3.6160601304
  C        12.4827214086        9.6254456251        2.7655926078
  N        17.4438538600       16.2974277600        4.2111672249
  C        18.1382108620       15.7847253624        1.9855717575
  C        18.6455678634       13.5338916431        1.2125377890
  H        18.2198800812       11.9730131521        2.5890754427
  C        13.5557806594       14.2266435644       11.7981752674
  C        16.0428091823       14.1092331195       12.4938767065
  C        14.3202416001       11.8399841579       13.8973024534
  C        14.2950999253       10.4669577762       14.1247403637
  H        11.6668271417        9.0062458721        3.0813565327
  H        11.9573638460       10.5544641797        2.6194231424
  C        13.0731373138        9.4410251565        1.3565201146
  S        17.6973002094       17.7550827708        3.5307955266
  N        18.0717804843       17.1659539319        2.0212062758
  C        18.5801029185       14.9861359656        0.8525451072
  H        18.9102956582       12.8998294356        0.4098879722
  H        13.5836982160       14.9783979993       11.0403399835
  H        13.5888725005       14.6923034965       12.7786738693
  C        12.3049966047       13.3989145538       11.4411734538
  H        16.1969899730       15.1084416255       12.1055960595
  H        15.7582759960       14.4050400567       13.4674496148
  C        17.3760552869       13.4972401482       12.4312324540
  H        14.0953354360       12.6911066102       14.5738746438
  C        13.9539649161        9.6984983798       15.3601224115
  H        13.8298643678        8.5952833469        1.4004340222
  H        13.6549019040       10.3099697334        1.0434397364
  C        12.0732520353        8.9344966307        0.4009693747
  C        18.8947357514       15.6890775037       -0.3535157377
  H        12.6234506289       12.6560382996       10.6735760608
  H        11.9508360061       12.6787915898       12.2554331766
  C        11.1914684430       14.2896280465       10.9543409696
  H        17.8642032627       14.1681868975       11.7671385842
  H        17.3385576723       12.5580325661       11.9757276776
  C        17.8056188430       13.3004229147       13.8256218384
  C        13.9521900587        8.3229497175       15.5194599209
  C        13.6558019298       10.5264739340       16.5728354825
  H        12.6971884698        8.3099137648       -0.2226307104
  H        11.3868505582        8.1839153715        0.8272597746
  C        11.3700571975       10.0161480738       -0.4106491481
  H        18.6760983093       16.7062314187       -0.2666186755
  C        19.2260238047       15.3099983893       -1.6290426486
  H        11.5839572995       14.9809970799       10.2402805744
  H        10.8860136122       14.8538141747       11.8700826902
  C        10.1095623220       13.4261071450       10.4869959783
  H        17.7736839462       14.2416451335       14.3660191495
  H        17.2701024868       12.5441170357       14.4329158634
  C        19.2988316031       12.9679739254       13.7832714754
  N        14.1675242307        7.3579447344       14.5063022039
  C        13.5285502336        7.7201174639       16.6725075167
  C        13.4073486107        9.9374251051       17.8503475827
  H        13.6666989203       11.5777161933       16.5322271074
  H        10.6252922399       10.4469658302        0.1608862080
  H        10.7577748470        9.5551940174       -1.1667818662
  H        11.9645222743       10.7322379301       -0.9581749727
  S        19.5516375648       13.7334968391       -2.0505631504
  C        19.3621875964       16.3954200203       -2.6587557458
  H        10.5283158096       12.6855813201        9.8401293365
  H         9.6199618985       12.8935997595       11.2805779272
  C         9.0011670474       14.2807678768        9.7515823911
  H        19.5362166462       12.1440031125       13.0719330358
  H        19.6350665095       12.6541835288       14.7624485549
  C        20.0575763982       14.2998189634       13.4087003569
  S        14.1564217039        5.8857375720       15.1232556364
  N        13.5800216917        6.3125217118       16.6040275781
  C        13.3162938557        8.4183127703       17.9249234224
  H        13.1707661924       10.5162465351       18.7492271565
  C        19.8266638336       14.4051414759       -3.6855819645
  N        19.7242371302       15.7050850877       -3.7865231339
  O        19.0143065744       17.5542976776       -2.5710058685
  H         8.5076582723       14.9596249752       10.5035712056
  H         9.4047993266       15.0139172896        9.0469095944
  C         8.0495731421       13.3183241977        9.0909090653
  H        20.8502661961       14.0927497806       12.6680678048
  H        19.4084502020       15.0829559647       13.0189357610
  C        20.6699964593       14.8660833193       14.6567756621
  C        12.9966831568        7.6623165403       19.0693166971
  S        20.1292754383       13.5106419528       -5.0819111742
  C        19.8085994283       16.4856407843       -5.0874150306
  H         8.6784758882       12.8363580880        8.3145927154
  H         7.8231698148       12.5530912069        9.8231102683
  C         6.8767869108       14.0811556604        8.4549677695
  H        21.1134334047       14.0637136998       15.2782161187
  H        19.9551058997       15.4405974961       15.2522387563
  C        21.7520873410       15.8441110442       14.2164738784
  H        13.2110565209        6.5818691366       18.9696634200
  C        12.4433179905        7.9819165935       20.3231965599
  H        20.6911409110       16.1792594297       -5.5946785918
  H        20.2032436753       17.4941988758       -4.9348987424
  C        18.5791492275       16.3620155121       -5.9442038425
  H         6.6392918365       13.5018941672        7.5312579612
  H         6.9155900978       15.1354547800        8.1921461932
  C         5.7349405614       14.0318659780        9.4488046089
  H        22.6577252426       15.2824105187       14.2438993207
  H        21.6318341990       16.2063871943       13.1923752944
  C        21.9015916047       17.1162503139       15.0691753370
  S        11.9273684599        9.5373734481       20.8071925456
  C        12.1944031883        6.9061538807       21.3049085614
  H        18.7659775259       15.5724398028       -6.6628571565
  H        18.2652923201       17.2718721326       -6.4733069426
  H        17.7669615178       15.9216730300       -5.3881932094
  H         4.8935286527       14.4623247835        8.8099425765
  H         5.4750624664       13.0156989269        9.7897629983
  H         6.0714330043       14.5902858843       10.3391362245
  H        21.1962212141       17.8494532103       14.6989796085
  H        21.8653705562       16.8367076265       16.1701872082
  H        22.8763715530       17.5626145524       14.9257632678
  C        11.3663453206        8.7008539294       22.3023215853
  N        11.5561779144        7.3935163736       22.3678542729
  O        12.5643268686        5.7475903720       21.1838132461
  S        10.9647473130        9.4524762167       23.8603159096
  C        11.4001079133        6.5817530737       23.5775516553
  H        11.1841592328        5.5172029197       23.3551012034
  H        10.4910301305        6.8927207164       24.1113933281
  C        12.6395561502        6.5035803257       24.4659402844
  H        12.9190220435        7.4721742143       24.8781455072
  H        13.4454912550        6.0375471323       23.8630559257
  H        12.5142977253        5.8891011608       25.3735790673
