352
 i =    19600, time =    19600.000, E =        25.5349453118
  H        11.6112110625        7.7063062784       32.1170747768
  C        11.1709798518        6.7070538952       32.1123153293
  H        11.9447055953        6.3004093418       31.4623532301
  C         9.8120912183        6.7844367128       31.4410056514
  C        11.3258711984        6.0595712556       33.5174135902
  C         9.8993898950        7.3181135512       30.0533974948
  H         9.4182891524        5.7886994098       31.3282007758
  H         9.0638461868        7.4633040500       31.8914239394
  H        10.7627465774        6.5026487447       34.3142202297
  H        11.1553922956        5.0118576544       33.4205861695
  H        12.3638635792        6.0795843117       33.9011713803
  C        10.0463460796        6.2018663418       29.0551632292
  H        10.6005833274        8.1646665338       30.0335379746
  H         8.8922634425        7.7771752490       29.9022588351
  C        10.6016638071        6.5787388413       27.6909864309
  H        10.8725900673        5.5682695298       29.4597779057
  H         9.2169517762        5.5869736290       28.9193577532
  C         9.7532893960        5.8447773987       26.5881412758
  H        11.6210814763        6.1308462214       27.6800828499
  H        10.5925929188        7.6260223047       27.7007424620
  C         8.4304566589        6.5173200686       26.2298705551
  H        10.4146286978        5.8159214530       25.7910435746
  H         9.5208404109        4.8109615857       26.8591103980
  C         7.3857669308        5.6564038378       25.4836750107
  H         8.0207993609        6.9161017704       27.1193928325
  H         8.6685646048        7.3547851091       25.6413146123
  C         7.0854042839        4.3057152098       26.1902653900
  C         7.8997305520        4.8075196436       24.2875308215
  C         6.1043655177        6.5321173286       25.2467927370
  C         7.2845680199        3.1855267023       25.4678201565
  C         6.5681269516        3.9938571359       27.5057292261
  C         7.8531077157        3.4961062606       24.2509294476
  C         8.3183923139        5.3920436233       23.0921682830
  H         6.4940204009        7.2018072287       24.5384813911
  H         6.0143665054        7.0770161355       26.1875940411
  C         4.9198681814        5.7502277050       24.7988666228
  S         6.7644303655        1.7227755485       26.1446360161
  C         6.4161986918        2.6424251949       27.5995252105
  H         6.4517816135        4.8110552468       28.1806034431
  C         8.2765639242        2.8819578438       23.1182186996
  H         8.4836775362        6.4846971185       23.0255747018
  C         8.5299415676        4.7621694953       21.9260353469
  H         4.9601830231        5.5091654061       23.7801681814
  H         4.8294106957        4.7263602808       25.2250010983
  C         3.6532730476        6.5454234661       25.0846886509
  C         5.8860244496        1.9061868894       28.7897415582
  C         8.5544868425        3.4355771600       21.8479376111
  H         8.2155445506        1.7627065991       23.1203987220
  C         8.9699780284        5.1321704351       20.6813035261
  H         2.7596399451        6.2899153934       24.5002704360
  H         3.7939037483        7.5057714217       24.6486569550
  C         3.2268223729        6.6546728541       26.5548813143
  C         5.8462468823        0.5055996822       29.0169126249
  C         5.4102977862        2.7287404790       29.9134640107
  C         9.0346088781        2.7417240841       20.6297013743
  C         9.1864630870        4.0503116382       19.8799389942
  S         9.2845617639        6.5650843147       19.9021976774
  H         2.3357740565        7.3173554909       26.6161145411
  H         3.9764339276        7.0408283793       27.1876032239
  C         2.7693156248        5.2074804292       27.0516078333
  N         6.1476964082       -0.4816830982       28.0706506425
  C         5.5220361683       -0.0531025314       30.2235643077
  C         4.9996868466        2.1776742200       31.1545092325
  H         5.5113177240        3.7966178190       29.7497971683
  C         7.9508396499        1.8154635001       20.0238832636
  C        10.3646963629        2.0002685698       20.8415099400
  C         9.5204370893        4.3979120925       18.5642045582
  C         9.5609949789        5.7521599294       18.4242914811
  H         2.1633537127        4.8353113390       26.2313520519
  H         3.5643858943        4.5401153327       27.2175458883
  C         1.8582182877        5.4487185186       28.3004073867
  S         6.3013449228       -1.9388178745       28.8355363013
  N         5.6602116009       -1.4726416612       30.2729744681
  C         5.1952140116        0.7466988306       31.3670014769
  H         4.8047424783        2.8341847778       32.0135234662
  H         7.9224505766        1.0079163390       20.7521375989
  H         8.3184037814        1.4696212929       19.1027988868
  C         6.5746080258        2.4903404954       19.8921122322
  H        10.5412997649        1.4933047140       19.9454919511
  H        10.1002474860        1.1877963934       21.5874359809
  C        11.6048025884        2.8716468580       21.1661573808
  H         9.7703784300        3.6223328992       17.8832020509
  C         9.9215135284        6.5761542636       17.2502534125
  H         1.3914376483        4.4754741909       28.4955597401
  H         1.1931116674        6.2486720707       28.2788695909
  C         2.8197315168        5.6371978862       29.5254241780
  C         4.9883731702        0.0129556050       32.6117528149
  H         6.6452416682        3.4571723229       19.4516782351
  H         6.0719005846        2.6800717922       20.8719679631
  C         5.6184311121        1.7525027615       18.8688572180
  H        11.4995076385        3.2580319904       22.1429358620
  H        11.5458152145        3.7153950237       20.5297461504
  C        12.9174920481        2.0730577805       21.0136709561
  C         9.9849396486        7.9575549983       16.9888554107
  C        10.2437311687        5.7843170828       16.0350400311
  H         3.2716949967        4.7209298466       29.8697889264
  H         3.7055342515        6.3325021022       29.4251559706
  C         1.8709570593        6.0213319846       30.6934767377
  H         5.1500060932       -1.0535283643       32.4851639099
  C         4.6357671774        0.3946231239       33.8671504718
  H         5.3039773869        0.8365674290       19.4303432987
  H         6.2761539919        1.2291713150       18.1907763137
  C         4.3989945699        2.4242290238       18.2191301494
  H        12.9249329546        1.2685079488       21.7434316211
  H        12.8564774637        1.6099812805       20.0236692983
  C        14.1508221026        2.9148048671       20.9696804638
  N         9.8152358670        8.9156646487       18.0374805577
  C        10.2780376127        8.5548540101       15.7515331656
  C        10.6157270075        6.3090008540       14.8490699402
  H        10.1033810394        4.6832587200       16.0318065511
  H         1.8708843721        7.0530328008       30.9363557050
  H         0.8258840165        5.7411105402       30.5648877456
  H         2.3158715870        5.5140612291       31.5688966719
  S         4.3414823257        1.9837692839       34.4290541387
  C         4.5176844814       -0.7127142873       34.8589306122
  H         4.3870091093        3.4505721509       18.4109753861
  H         4.4528585169        2.1881200213       17.1009355224
  C         3.0576657602        1.8730825738       18.7512684628
  H        13.8830190198        3.7504352444       20.3341721215
  H        14.9935760927        2.4358280120       20.4703805405
  C        14.5203611382        3.3918326450       22.3742438538
  S         9.8628141534       10.3950480219       17.3171258388
  N        10.1377060624        9.9074715023       15.8122279421
  C        10.6309227080        7.7681997388       14.5984665531
  H        10.7490878956        5.6230040005       13.9674069110
  C         4.2076192784        1.2639603075       36.0169146450
  N         4.2893397955       -0.0717004695       36.0377656917
  O         4.6597628201       -1.8866805472       34.6553514977
  H         2.2798946085        2.5551599555       18.5282428349
  H         3.0793363356        1.5684490770       19.7841440974
  C         2.7079845697        0.6392338290       17.9756760134
  H        15.2513792741        4.2020017268       22.3227568547
  H        13.6941269830        3.8509159603       22.8278754619
  C        14.9847751999        2.1457117815       23.1832152572
  C        10.9236245262        8.3608079402       13.3570211253
  S         3.8991351210        2.1101237579       37.5298938759
  C         4.3818533877       -0.7543361601       37.3192614953
  H         1.9870386321        1.0143139383       17.2524289803
  H         3.5590762360        0.1459300998       17.5206678833
  C         2.0151863637       -0.4339989381       18.8740162280
  H        14.8753567841        1.1958260715       22.6426280705
  H        14.3051190106        2.0972914917       24.0654585655
  C        16.4377635191        2.3110433817       23.6694433869
  H        10.7923956050        9.4911159507       13.2641960013
  C        11.3736781412        7.8815623369       12.0838645806
  H         3.6930726284       -0.3181684325       38.0540278163
  H         4.0909783465       -1.8568575892       37.2306396226
  C         5.7803060349       -0.7266802088       37.8983909629
  H         1.1940049208        0.0454196941       19.4784039537
  H         2.7911985431       -0.8504851527       19.5876136012
  C         1.7070432788       -1.6940546037       18.0192527318
  H        16.6469682247        3.3753776494       24.0067066941
  H        16.6597315876        1.7016168827       24.5601145261
  C        17.4330651473        2.1233191408       22.5453186047
  S        11.6581365849        6.1907684790       11.6348860679
  C        11.6690932079        8.8221063158       10.9533322462
  H         6.0033480743       -1.6281527412       38.5640750698
  H         6.5139754281       -0.6952114761       37.1176113385
  H         5.8014272087        0.2487691627       38.4546287670
  H         0.9711313044       -1.4797959605       17.2310946147
  H         1.2801166574       -2.5432589914       18.5872384202
  H         2.5916642781       -2.2459114228       17.6836156168
  H        18.5029621584        1.9987966037       22.8331460591
  H        17.5572101506        2.9693729638       21.9252963053
  H        17.2962826986        1.1976861004       21.9764198232
  C        12.1762486631        6.8316678705       10.0007323121
  N        12.1350276660        8.1828549743        9.8435360316
  O        11.5662995220       10.0561410345       10.9986547719
  S        12.6740871326        5.8178663597        8.7117050524
  C        12.3566872706        8.9406975294        8.6142282743
  H        13.0725969394        9.7093111775        8.8952279875
  H        12.7502654505        8.3848216695        7.7930050005
  C        11.0406284709        9.5814805826        8.1384057706
  H        10.1016247057        9.1796794459        8.4318001808
  H        11.1344475217       10.6089680117        8.3300173152
  H        10.8852066551        9.3105227068        7.1413646528
  H        20.9376266970       11.1688593110        3.1603337528
  C        21.3615380842       10.1485020997        3.1464333299
  H        20.5347950392        9.3891603778        3.2223861315
  C        22.3928985290       10.2141820946        4.3502340597
  C        21.9769927043        9.7232546691        1.7965766525
  C        21.7454760873       10.5847649321        5.6350734460
  H        22.8398704684        9.2933508134        4.4980918846
  H        23.1351705951       10.9882274063        4.1748933449
  H        22.6031032420        8.8551516400        1.8886470027
  H        22.5456838934       10.4997579865        1.3859427376
  H        21.2011976832        9.5862115925        1.0890923388
  C        20.7227088736        9.4867331479        6.0218501487
  H        22.4633481100       10.5602812930        6.4096261566
  H        21.2210785287       11.4932143253        5.7228940804
  C        19.9469230542        9.8029993838        7.3440086329
  H        21.2104822623        8.5211050575        6.1414043954
  H        19.9824072910        9.3214124616        5.2828641907
  C        18.7656201408       10.7117771432        7.0931318261
  H        20.6065365228       10.3729390960        8.0555991433
  H        19.6125829466        8.8521509548        7.8443172348
  C        17.4960194518        9.9717757071        6.7472522480
  H        18.5731929633       11.1543068661        8.0412836079
  H        18.9364429987       11.4558705553        6.3100333656
  C        16.0978910258       10.7326361814        6.6612910512
  H        17.2394271455        9.3493994342        7.5516711132
  H        17.6405826201        9.3618875624        5.8582685129
  C        16.4116239869       12.0817274896        5.9865593641
  C        15.8683451606       11.4341369311        7.9261511122
  C        14.9376210946        9.8787080547        6.0604069122
  C        16.4243666061       13.2134355360        6.8331589025
  C        16.9274980133       12.4266768430        4.7439160191
  C        15.9476764902       12.8123305948        8.0384143831
  C        15.5816602667       10.7494983422        9.0835099312
  H        15.1720311042        9.3999286783        5.1237770214
  H        14.7659402262        8.9885165268        6.6983204687
  C        13.6636901569       10.7741988027        5.8961153233
  S        16.9913820621       14.6565924877        6.0904451849
  C        17.0979384871       13.7840881442        4.5949294524
  H        17.0660643683       11.5980754661        3.9913569695
  C        15.7123123146       13.4526221143        9.2158958798
  H        15.5597785299        9.6436780363        9.0474558926
  C        15.4082938366       11.4089407001       10.2550295840
  H        13.9388921116       11.8033314635        5.5536742586
  H        13.0981706759       10.9082424518        6.8300387547
  C        12.7114963966       10.0851090104        4.9186041255
  C        17.7445256477       14.4176767853        3.3794241344
  C        15.3969722911       12.7814403129       10.3532311329
  H        15.8457544687       14.5149367910        9.3435425395
  C        15.1860099345       10.9959381594       11.5565282965
  H        11.6524698340       10.4562621180        5.1920273681
  H        12.7336017149        9.0208277888        5.1639563775
  C        12.8477080315       10.4892217297        3.4703594455
  C        17.8791885754       15.8068462857        3.1114072866
  C        18.2626368668       13.5716465187        2.2893899586
  C        15.0082256217       13.4018887190       11.6398329134
  C        14.9276633721       12.0721934452       12.3351871881
  S        14.8240603688        9.4350971370       12.2780667453
  H        13.9106931446       10.7274348366        3.2631269922
  H        12.1515012986       11.3229456394        3.3032677900
  C        12.2617627157        9.1987464261        2.7063907656
  N        17.5469069259       16.7831908469        4.0501808804
  C        18.3156009504       16.3395833568        1.8892904541
  C        18.7498889614       14.0645976955        1.0848961804
  H        18.2992595577       12.4801483346        2.4356997130
  C        13.6230344099       14.1488278110       11.5539676053
  C        16.0533624174       14.2687571078       12.3532768500
  C        14.6024165636       11.6399370530       13.5899403492
  C        14.4971455046       10.3124101353       13.7324967223
  H        13.1035716227        8.4767864680        2.6806055007
  H        11.3646925219        8.8195090915        3.2398028308
  C        11.8659480636        9.5213840258        1.2135360224
  S        17.8930530277       18.2307112159        3.4670995504
  N        18.3259528271       17.7598396173        1.9684761732
  C        18.7063046481       15.5212498393        0.8044109758
  H        19.0534635785       13.3776992299        0.3879480065
  H        13.8270426394       15.0126178259       10.8667862594
  H        13.3233286058       14.5366835841       12.5417883107
  C        12.5373968896       13.2737006261       10.9950932331
  H        16.3660195191       15.0173467633       11.5827406285
  H        15.5272977628       14.8941263071       13.1218092072
  C        17.3355747619       13.6169161616       12.8381375190
  H        14.5054731178       12.3581855451       14.4474731732
  C        14.2154252052        9.5473185690       15.0083436352
  H        11.0201396837       10.3062156337        1.1659107737
  H        11.4295435214        8.6876249045        0.6812243959
  C        13.0434355549       10.0869070034        0.3332509102
  C        18.9212941023       16.1073213556       -0.4527060628
  H        12.9063398365       12.8984977516       10.0121185857
  H        12.3047962368       12.4345599685       11.6929762764
  C        11.2669804780       14.0785268354       10.8176118097
  H        17.6006199180       12.8989097889       11.9787226668
  H        17.2381903918       12.9166629596       13.6352561003
  C        18.4401942851       14.6157336055       13.2108095335
  C        14.0847330539        8.1664539658       15.1703514410
  C        13.9255047483       10.3672409769       16.2176529308
  H        13.7715040111       10.7022806112        0.8942596456
  H        13.7418015631        9.2907180059        0.1523042953
  C        12.5957866409       10.6215687608       -0.9902856854
  H        18.9042161685       17.1743007861       -0.4400848644
  C        19.2937841276       15.6625766851       -1.6836392894
  H        11.1270036042       14.3778070610        9.7812405711
  H        11.3276364044       14.9856492839       11.5103868837
  C        10.0353516674       13.1842931965       10.9794396146
  H        18.7306395013       15.2214450426       12.3648582481
  H        18.0995219249       15.3251660714       13.9768772043
  C        19.6140401121       13.8830353925       13.8062889149
  N        14.2536779743        7.1398693848       14.2477937817
  C        13.6795536456        7.6058466304       16.3836613220
  C        13.3994630770        9.8302398813       17.3795585611
  H        14.0892792114       11.4324084012       16.3121503689
  H        13.2961516276       11.2517889979       -1.5399070026
  H        11.7164994308       11.1820690980       -1.0682721716
  H        12.4212191589        9.6848856555       -1.6502846772
  S        19.7501703505       14.1172798702       -2.2046201977
  C        19.3096348853       16.6456428278       -2.8419410391
  H        10.1540976269       12.2579186050       10.4726907507
  H         9.7526322919       13.0206180192       11.9983887538
  C         8.6925978120       13.8353479573       10.5801924026
  H        20.0502332989       13.1994590121       13.0335394359
  H        19.3883988334       13.5157954919       14.7668178837
  C        20.6981233830       14.8626220062       14.2179270543
  S        14.1301901826        5.6150380948       14.9147304783
  N        13.6502307506        6.2411660102       16.4026744898
  C        13.3357506636        8.3681424509       17.5525601057
  H        13.3044517467       10.4846285565       18.1833228396
  C        19.7105800857       14.7264970538       -3.8211321978
  N        19.6646186519       16.0563237141       -3.9630027393
  O        18.8711711739       17.8202131878       -2.7738798318
  H         8.1102617380       13.8529544709       11.4660644893
  H         8.7480570616       14.8903367327       10.3015459523
  C         8.1143856005       13.0278540376        9.4228531685
  H        20.0185878787       15.5813246412       14.7345619203
  H        21.3858755368       14.5863072427       14.9728848709
  C        21.4680336794       15.5271215701       13.0897402199
  C        12.9484467801        7.6892807561       18.8014862111
  S        20.4520793095       13.7693083205       -5.1381934370
  C        19.6942721974       16.8488530872       -5.1923932675
  H         8.9510102861       12.6893540630        8.7614435968
  H         7.6289663202       12.1126854627        9.7884419151
  C         7.0802839278       13.8800816162        8.6358154516
  H        20.7985523782       16.0666605205       12.4139598979
  H        22.0732681647       14.7789886423       12.5404432491
  C        22.3899857915       16.4807373359       13.7549253134
  H        12.9927091861        6.6516485543       18.7393296414
  C        12.5290061158        8.0952662743       20.0535395089
  H        20.3055716702       16.3737551940       -5.8920476347
  H        20.0751586589       17.8651458052       -5.0217369590
  C        18.3060738750       16.9402475050       -5.7823506652
  H         6.7780266421       13.2686715471        7.8299661827
  H         7.5326355336       14.7300620804        8.1512552784
  C         5.7710582051       14.1860600074        9.4207476011
  H        23.2561283115       16.0290140944       14.2206318276
  H        22.8962243073       16.9084805410       12.8761909639
  C        21.6915011231       17.6002421732       14.5914293557
  S        11.9617864232        9.6413951377       20.3437674665
  C        12.4284767040        7.1405418116       21.2193405238
  H        18.0838105385       17.9781586741       -6.0322144056
  H        17.5546240777       16.6002600720       -5.0629719814
  H        18.2697615452       16.4613071167       -6.7190664520
  H         5.3813812349       13.2601537329        9.7606508808
  H         5.9932527844       14.7645492706       10.3064648128
  H         5.0567213181       14.7205137700        8.8467697438
  H        20.7395916910       17.8485478316       14.1054282804
  H        21.4858526294       17.2405564210       15.5873764889
  H        22.3596670559       18.4076042393       14.6645537045
  C        11.6828159658        9.0799670537       22.0375702146
  N        11.7858273982        7.7242228256       22.2328406493
  O        12.7186133710        5.9664927178       21.1157085281
  S        10.7571976127       10.0515090529       23.2149617602
  C        11.4422766538        7.0510719125       23.4437406213
  H        11.2279250957        6.0424334569       23.0646244751
  H        10.5119620331        7.3567856536       24.0114857275
  C        12.6639574404        6.9656921395       24.3806940814
  H        13.4989081338        7.0891819863       23.7395103280
  H        12.9049478766        6.0440265541       24.9248903307
  H        12.6901367240        7.6347096959       25.2597910112
