352
 i =    80400, time =    80400.000, E =        25.2168700330
  H        10.4308143936        7.6437220788       31.4475234352
  C        11.4365143626        7.2521544366       31.5740293706
  H        12.2323856267        7.9985196314       31.4975140746
  C        11.7613428308        6.3174055832       30.3946874313
  C        11.5157261831        6.4743739188       32.8393714766
  C        10.5727257176        5.4821403608       29.9967142577
  H        12.0293715885        6.9865601541       29.6199107722
  H        12.6506902674        5.8045227680       30.5810822203
  H        10.8899353469        6.9003899333       33.5937727126
  H        11.1683095121        5.4184212068       32.7599277171
  H        12.5627345090        6.4384843102       33.1570254075
  C         9.8561787315        6.0781823119       28.7597004267
  H         9.9238921641        5.5203749229       30.8584609982
  H        10.7367309241        4.4070204584       29.7138317211
  C        10.6011568038        6.0120079977       27.4729859166
  H         8.8951442469        5.5622599959       28.7396288891
  H         9.6046545942        7.0962475460       29.0299794242
  C         9.6974933572        5.3333893270       26.4195968250
  H        11.4876820855        5.4328846595       27.5226380106
  H        10.9199019829        7.0178324288       27.1141026472
  C         8.5064841761        6.1048258869       26.0410477161
  H        10.2867750155        5.1262302464       25.4835057840
  H         9.4338539950        4.2657998833       26.6712642603
  C         7.3953920366        5.3462973992       25.2737849785
  H         8.0913770912        6.3461892049       26.9567208921
  H         8.7568501112        7.0793419582       25.5981204368
  C         7.0496844417        3.9850572188       25.9058325527
  C         7.9105570426        4.6650250823       23.9947024021
  C         6.1889969089        6.1989433770       24.8705929236
  C         7.3064573472        2.9243133874       25.0784254013
  C         6.6454985357        3.6691220055       27.1793494823
  C         7.8176848713        3.2917193057       23.8443972509
  C         8.3322450538        5.3771950513       22.8216889745
  H         5.7402604764        5.6029698277       24.0583768014
  H         6.5877281550        7.1674910176       24.4027612001
  C         5.1479557402        6.4881155127       26.0170357597
  S         6.8328847884        1.4716780465       25.8053091861
  C         6.3853244655        2.3077723951       27.2208564423
  H         6.5157818025        4.4646429682       27.9041372641
  C         8.1797667429        2.6569374052       22.6563944311
  H         8.4785392938        6.4524554510       22.8928734469
  C         8.7307884674        4.7530903661       21.6895105843
  H         5.0057592884        5.6002330576       26.5971582678
  H         5.4695946639        7.3024613721       26.6286495760
  C         3.7929467931        6.9994304329       25.5217124757
  C         5.9801359020        1.5699940914       28.5001502446
  C         8.6513242652        3.3805269146       21.5309713567
  H         8.1242007469        1.5358589828       22.4996421151
  C         9.1331081663        5.1748962534       20.4438269376
  H         3.3981118308        6.1427120510       24.8955887891
  H         3.7741359577        7.8718751667       24.9820727588
  C         2.6474875001        7.0864596019       26.5337000784
  C         6.1085365115        0.2012917984       28.7351273640
  C         5.6071255368        2.4050363239       29.6749080486
  C         9.1457957058        2.7505342018       20.2591043927
  C         9.4434842147        4.1140252387       19.5992391732
  S         9.4313971463        6.7381585683       19.6744307027
  H         1.7092152139        7.4358952019       26.1391630962
  H         2.9365161448        7.7870300972       27.3946466279
  C         2.3596926198        5.7440663323       27.1436363396
  N         6.5446665148       -0.7681860086       27.8007122666
  C         6.0015465540       -0.4115948756       29.9754181552
  C         5.3202553846        1.7877492291       30.8609103956
  H         5.3187140279        3.4441108687       29.5358316826
  C         8.0036685567        2.0600778235       19.4825355271
  C        10.2491992186        1.7742959638       20.5625131322
  C         9.9573021851        4.5876229765       18.3584937365
  C         9.9102785299        5.9273885043       18.2737119699
  H         2.5045036755        4.9063873720       26.4369539434
  H         2.9717471764        5.5987666184       28.0443922011
  C         0.7580537866        5.6180363317       27.5192849876
  S         6.8223345672       -2.1822880859       28.5866186596
  N         6.2630415829       -1.7238676737       29.9952771330
  C         5.6759014326        0.3536598697       31.0800494826
  H         4.9872256851        2.4210797367       31.6598698285
  H         7.6922378630        1.2234517986       20.0399318464
  H         8.2538040312        1.5740779118       18.4780783542
  C         6.8042048118        2.9813032190       19.1230197573
  H        10.6153882547        1.4383253264       19.5935339008
  H         9.8122841170        0.9626849099       21.2687873555
  C        11.3467639116        2.4669732287       21.3221626964
  H        10.1770267999        3.8709287672       17.6058118338
  C        10.0803647294        6.6661227682       16.9778327817
  H         0.1318029859        5.3271791502       26.7052715145
  H         0.3727790866        6.5856517909       27.8774221149
  C         0.7369402737        4.7216984092       28.7159357580
  C         5.6003066294       -0.3459241264       32.3540370233
  H         7.0692318629        3.4402832535       18.1819000281
  H         6.7086321847        3.7736995370       19.8150201426
  C         5.4535576999        2.3007743929       19.0540779063
  H        11.0444010874        2.6700316373       22.3930126048
  H        11.6901338763        3.4118390374       20.8180254127
  C        12.6697616803        1.6092103106       21.4516734802
  C        10.0099251729        8.0487680769       16.8113432806
  C        10.5297969649        5.8996763897       15.8064445706
  H        -0.2345884538        4.3573715256       28.9516807695
  H         1.2853497502        3.7484516069       28.4719317533
  C         1.2155123461        5.3969260274       30.0051256538
  H         6.0505956183       -1.3742072584       32.2583576260
  C         5.2051283970       -0.0506834534       33.6586381357
  H         4.7646343055        2.9598036370       19.5981612939
  H         5.5180931877        1.4807593736       19.7396093803
  C         4.9194587008        1.8192507346       17.7462682701
  H        12.5727951490        0.8950862381       22.3046040643
  H        12.7701595605        0.9523183519       20.5792002286
  C        13.8719652669        2.5678153933       21.5728790879
  N         9.5808640529        8.9776018210       17.8359011753
  C        10.3306086386        8.7330283972       15.6583847376
  C        10.8504165721        6.5269507743       14.6012254116
  H        10.5355026254        4.8125913362       15.8908407938
  H         0.8656803751        6.4047956097       30.0586525098
  H         0.8117380616        4.8691587726       30.8242792389
  H         2.2952609245        5.2377322023       30.0327752348
  S         4.7108541042        1.5079749487       34.2038079415
  C         5.1185849759       -1.1346060255       34.7026331619
  H         5.2629769616        2.6183490799       16.9760037959
  H         5.4527613359        0.9715908167       17.4279495148
  C         3.4455203121        1.4143200793       17.5147233227
  H        13.5090282137        3.3233317091       22.1942423889
  H        14.0524400334        2.9544597006       20.6065852687
  C        15.1063941059        1.9721982058       21.9742361696
  S         9.6683235673       10.5210177934       17.2251726193
  N        10.1753316669       10.1421203678       15.7409802339
  C        10.8359138205        8.0074012982       14.5071883601
  H        11.2380070065        5.9147061189       13.7723867008
  C         4.5203535206        0.7315081461       35.7584259854
  N         4.7770099168       -0.5654718675       35.8718227938
  O         5.3071327153       -2.3171212099       34.4704495057
  H         3.3154387188        1.0535699704       16.5292207698
  H         2.8258533464        2.1909929211       17.7841921921
  C         3.0394632585        0.3630853526       18.5835413997
  H        14.9605664439        0.8315466364       22.0334898440
  H        15.8157974038        2.0203634549       21.1489625549
  C        15.9199211729        2.7223969724       23.0600577118
  C        11.1704741999        8.7621384548       13.3703400438
  S         3.9869327699        1.5904837432       37.2735160353
  C         4.5822972772       -1.4179295529       37.0934329396
  H         3.9495459587       -0.1755763151       18.9757674173
  H         2.4863724493        0.8714036956       19.4175078081
  C         2.0498597605       -0.8281180377       18.0866108896
  H        15.2413124143        3.0121492457       23.8631333273
  H        16.4145210586        3.6184494111       22.7684981565
  C        16.9771457025        1.8738240881       23.7506456343
  H        10.6927500442        9.7397093884       13.3220575994
  C        11.8162694542        8.4840168901       12.1780609024
  H         3.9915533095       -0.9085184037       37.8775557249
  H         3.9967894550       -2.2852293914       36.8760903868
  C         5.9704680352       -1.5541017134       37.8149525623
  H         1.1584809076       -0.4140290147       17.5756725155
  H         1.7250626769       -1.4320992329       18.9678385000
  C         2.7927220960       -1.6111729601       17.0509506941
  H        17.3566934196        2.4187228336       24.6163660981
  H        16.5723057222        0.9263480923       24.0627675164
  C        18.1017684675        1.6332126380       22.8473858232
  S        12.3814628705        7.0050966066       11.6111042271
  C        11.7806545941        9.5293570110       11.0748629139
  H         6.7467950619       -1.2711811172       37.2288102708
  H         6.0262356230       -0.9982189819       38.7350443054
  H         6.0259266858       -2.6274074788       38.0311906181
  H         2.6058920460       -1.0803104878       16.0983526533
  H         2.4435059278       -2.6845797561       16.9377209580
  H         3.8694079413       -1.6510995501       17.1654565580
  H        18.5355140637        2.5386135198       22.4846777128
  H        17.8766462666        1.1114954272       21.8955924938
  H        18.9102644538        1.0522662109       23.2671333311
  C        12.7211141130        7.7325622904       10.0937720069
  N        12.3791250203        9.0735063540        9.9872950903
  O        11.3314939212       10.6772591867       11.1897996135
  S        13.4306600245        7.0618322400        8.6634207211
  C        12.4730561495        9.8495912506        8.6939595688
  H        12.6832273058       10.9178405375        8.9097942603
  H        13.4041728882        9.6474166904        8.1292246419
  C        11.1722045630        9.7333457444        7.8091907284
  H        10.3339922191       10.1097789935        8.3717624935
  H        11.2369382516       10.3917925786        6.9089443600
  H        10.8112238520        8.7279240738        7.5754860858
  H        21.3288101466       10.6979842851        3.0031527802
  C        21.9723453011        9.7850842460        3.0971608722
  H        21.2902750350        8.9298817501        3.2158071659
  C        22.9369455940        9.7678934394        4.3052064427
  C        22.6632302038        9.5279345948        1.6800462341
  C        22.1655468121       10.0697435534        5.6560411828
  H        23.4758700297        8.8025552091        4.3453976117
  H        23.7818054665       10.4613463291        4.2366958056
  H        23.4514006865       10.2840573361        1.4723359412
  H        22.0312089818        9.5241284180        0.8514189941
  H        23.1983951428        8.6168509495        1.7477761282
  C        21.5990313693        8.7018368348        6.1028228903
  H        22.8462083890       10.4980548366        6.4955400834
  H        21.3202531604       10.8108874050        5.7161859056
  C        20.4473049973        8.9965490035        7.0642871814
  H        22.4573012148        8.2092973206        6.6152106510
  H        21.2610522393        8.1176216279        5.2380435069
  C        19.1323458063        9.3474055397        6.3379093013
  H        20.6691379431        9.7138181175        7.9109950512
  H        20.2638503080        8.0396049731        7.5166681193
  C        17.9789845187        9.6041182098        7.3015736073
  H        19.2536624013       10.2058620347        5.6480186763
  H        18.9568964576        8.5023054266        5.7212743562
  C        16.7944848942       10.4784733424        6.8902816421
  H        18.5567438964       10.3033780409        7.9074486074
  H        17.8395926233        8.7039831623        7.8404327387
  C        17.1314691294       11.8173326297        6.1070077948
  C        16.3630459711       11.2697846908        8.1100432865
  C        15.6960952535        9.6547139906        6.1719631640
  C        17.0455519508       12.9575640156        6.8977120125
  C        17.5163619180       12.1944417788        4.7960718738
  C        16.4705933705       12.5947102332        8.1325057100
  C        15.9023490267       10.6794680846        9.2650150398
  H        16.0724995053        8.9618670139        5.4345441493
  H        15.2537305247        9.0122160473        6.8464983615
  C        14.6606719771       10.5621124688        5.5423609748
  S        17.5046465757       14.4199066354        6.0712905831
  C        17.7528874512       13.5460594942        4.6371442982
  H        17.6163497032       11.4895553423        3.9702283327
  C        16.0723524671       13.2723326157        9.2445847363
  H        15.9282673122        9.6342312241        9.3674425736
  C        15.6012212551       11.3204133498       10.4103462137
  H        15.1103183098       11.2757063235        4.8164697717
  H        14.0952632940       11.0996652636        6.2871901710
  C        13.6485161462        9.6531045510        4.8800874650
  C        18.2962592318       14.1424498724        3.3644240494
  C        15.6097794086       12.6521289853       10.4081522463
  H        16.3713572619       14.3024407721        9.3494438558
  C        15.1098056438       11.0145351300       11.5964713486
  H        12.6546012915       10.1159991571        4.9222818445
  H        13.7133063354        8.6821298047        5.4336561151
  C        13.9910420552        9.3384340385        3.4386424895
  C        18.2122045194       15.5414748427        3.0022953433
  C        18.6760059819       13.2169087150        2.2244886583
  C        15.2618091880       13.4201063231       11.6189982721
  C        14.9321391828       12.1401627886       12.4039132294
  S        14.9222727915        9.5326172480       12.4718817389
  H        14.5839558863        8.4390183738        3.2910190777
  H        14.5634056343       10.1077250962        2.9632793188
  C        12.7165119680        9.2331823572        2.6369343897
  N        17.8626311019       16.5938713723        3.7978095613
  C        18.6300131477       16.0002844927        1.7920865549
  C        18.8931872478       13.7529810738        0.9231190006
  H        18.7463155432       12.1334210475        2.3720870394
  C        14.0088369866       14.3018771349       11.4118432936
  C        16.5471170794       14.0987904019       12.2339318027
  C        14.6238791993       11.7158574346       13.7677637674
  C        14.4658639781       10.3628419597       13.8917106742
  H        12.1409731983        8.4656723198        3.1065372742
  H        12.2195865867       10.1926580941        2.7892497150
  C        12.9584341364        8.9917048468        1.1836296578
  S        18.0638325480       18.0243743291        3.1040721264
  N        18.6025693508       17.3957970469        1.6823369446
  C        18.9303481974       15.2099112537        0.6363358970
  H        19.0085882259       13.0199998429        0.0787012305
  H        14.3131443926       15.1727427779       10.8277702845
  H        13.7087287324       14.7149947108       12.3835423243
  C        12.8679459430       13.5019646145       10.8400760010
  H        16.6714881257       15.0082364861       11.5680016529
  H        16.2552794282       14.4407029963       13.1936279551
  C        17.8593931264       13.2167074624       12.3049108921
  H        14.6948578106       12.5333992242       14.5062528201
  C        14.0404796994        9.6923755408       15.1564953025
  H        12.2155994661        8.3336377031        0.7693899732
  H        13.7902205835        8.3202483452        1.0385812629
  C        13.1747452508       10.2509002542        0.3670420945
  C        19.2292854871       15.8408267899       -0.6126643977
  H        13.0713256017       12.9618719761        9.9246769377
  H        12.5787894438       12.7668617844       11.5769305541
  C        11.6403666121       14.3083877219       10.5771012431
  H        18.0261628842       12.6557987921       11.3678397568
  H        17.7161010256       12.4036834373       13.0308817758
  C        19.0304934545       14.1447861118       12.7088058760
  C        13.9583713646        8.2699616365       15.2529868921
  C        13.6570617514       10.4610022866       16.3380459778
  H        12.4334564757       10.9704949161        0.4799955014
  H        14.1028051777       10.5478393389        0.7416474733
  C        13.2546367394       10.0284057197       -1.1565686246
  H        19.2282347441       16.8527896602       -0.6030016773
  C        19.6877787430       15.3660556587       -1.8688607914
  H        11.7450020994       15.0789395270        9.7722475507
  H        11.4911220801       14.7927263622       11.5061483468
  C        10.4862131432       13.3696327328       10.1498258442
  H        19.2288504932       14.7969642115       11.8670955735
  H        18.7233628716       14.8008230947       13.5017804169
  C        20.4340858082       13.5528424241       13.1684781765
  N        14.2791777068        7.3513303232       14.3200917287
  C        13.5998300142        7.6707543764       16.4358036291
  C        13.2760709941        9.9107603154       17.5353139603
  H        13.7147704510       11.5279936023       16.2631946418
  H        14.0067643397        9.3036791459       -1.4614701487
  H        13.5134109299       10.9438181995       -1.6279583937
  H        12.2605869379        9.7385540431       -1.5217614128
  S        19.9760161071       13.7417160655       -2.3582246909
  C        19.8985238894       16.2994296385       -2.9607363005
  H        10.7527203199       12.6161228958        9.5091050103
  H        10.0686871750       12.8731983629       11.0210917465
  C         9.2770136309       14.1357281536        9.5285612749
  H        20.8433214328       12.7404437904       12.5490269374
  H        20.3350695965       13.1440946693       14.1448151558
  C        21.5228003620       14.6274080418       13.1873022399
  S        14.2112219416        5.8637908509       14.8929544105
  N        13.6647891268        6.2688178340       16.3555610122
  C        13.3289973844        8.4071684338       17.6254742941
  H        12.9966514407       10.6660701564       18.3341834945
  C        20.3174639741       14.3723735601       -3.9998396921
  N        20.2297411071       15.7144423119       -4.1142097020
  O        19.4899180587       17.4426200608       -2.8686580115
  H         8.8889128001       14.9311053210       10.1716545720
  H         9.6115642357       14.6336477144        8.6020290204
  C         8.1435808006       13.1624766035        9.1112657012
  H        22.4186166299       14.0706519293       13.5071272213
  H        21.8444910134       15.0074529817       12.2086415821
  C        21.1984712287       15.8903233600       14.0477958938
  C        13.0584216531        7.7141237596       18.8776633006
  S        20.8474146121       13.3255437302       -5.3486390234
  C        20.2865150110       16.4754555911       -5.4242853089
  H         8.5060187972       12.5123633460        8.3575685382
  H         8.0189738018       12.5188020879        9.9319291641
  C         6.7763019956       13.7643860246        8.7359723249
  H        20.6349842130       15.6222830217       14.9628257877
  H        20.4351327122       16.4265673961       13.5450895444
  C        22.4069338646       16.7753929929       14.2351833384
  H        13.2408059677        6.6074927542       18.7907157205
  C        12.6309976178        8.0027815839       20.1917286786
  H        20.8713056788       15.9862914970       -6.1369143595
  H        20.8140798526       17.4446996664       -5.2034847914
  C        18.9327205608       16.6582040150       -6.1409541335
  H         6.1282566482       13.1271897427        8.1993279224
  H         6.9528415246       14.6813414508        8.2101737219
  C         6.0445962528       14.3272469827        9.9887855937
  H        23.3913890208       16.2334401452       14.1945274034
  H        22.4793610892       17.5473433009       13.5252391259
  C        22.4092503836       17.4809676593       15.5172973358
  S        12.0335455817        9.5008141621       20.7638501833
  C        12.4343487966        6.8461481728       21.1641031980
  H        18.4664609453       17.5130450344       -5.7682676569
  H        18.3246886186       15.7564328664       -6.1832237115
  H        18.9307431939       17.0566239089       -7.1542811863
  H         6.6291859812       15.0215741971       10.4967228993
  H         5.0358975476       14.7198321963        9.9510915533
  H         5.8621948452       13.4694925558       10.7097139076
  H        21.5060957752       17.9489661224       15.6982728416
  H        22.5197430314       16.7598037408       16.4092913639
  H        23.2855057174       18.1676010740       15.7060099423
  C        11.5348419876        8.6247786547       22.2724583858
  N        11.7077512560        7.2616390317       22.2545492596
  O        12.8674729146        5.6928884384       20.9179846123
  S        10.9353259059        9.2861995035       23.8279763597
  C        11.7552354586        6.5459573491       23.4408367296
  H        11.6185383768        5.4973607244       23.1412315118
  H        10.9128786852        6.7970834121       24.1522583445
  C        13.0721793481        6.6967999494       24.2108341753
  H        13.2809757744        5.8671065953       24.8109559100
  H        12.9851431080        7.5660322175       24.9318720101
  H        13.8367393243        6.7652763015       23.4708778361
