352
 i =    69400, time =    69400.000, E =        25.3341473395
  H        12.8312464966        5.3033454434       32.5318040487
  C        11.8083928476        5.0943572379       32.2228841317
  H        11.8127139632        4.0233498088       31.9630708032
  C        11.5660202821        5.9512627253       30.9500404194
  C        10.9261230715        5.3798222027       33.4163940749
  C        12.4120849372        5.4561182064       29.7310643784
  H        10.5323890808        6.0641694797       30.7785469494
  H        11.8151408187        7.0340412797       31.1610557572
  H        11.0645775614        4.6086681947       34.1693343980
  H        11.0583269706        6.3663483507       33.8614405849
  H         9.8445099569        5.3848790626       33.1130240931
  C        11.6971985433        4.8508301362       28.5918418954
  H        13.1629197861        4.7616778563       30.0068970215
  H        12.9355071991        6.4064737778       29.3860531525
  C        10.5346558517        5.6109858526       27.9339293000
  H        12.4040169965        4.5084824261       27.7361139324
  H        11.2781804095        3.9718801782       29.1029131737
  C         9.6606347133        4.6539964052       27.0858325627
  H        10.9743573540        6.4738102911       27.4179166807
  H         9.8587668836        6.0396919668       28.6764026231
  C         8.3510702946        5.3817630133       26.5096686937
  H        10.2121351459        4.3001493063       26.1728679627
  H         9.2570955054        3.8060869287       27.6460098032
  C         7.5627212774        4.4950001776       25.5842916422
  H         7.8081320385        5.7874029822       27.4262305358
  H         8.6596214068        6.2292127112       25.9172227507
  C         7.2722920101        3.1734332765       26.3246874656
  C         8.2321776093        3.7356004596       24.4454524333
  C         6.3575969681        5.2752771894       25.0411846328
  C         7.5896753392        2.0395553989       25.5598991062
  C         6.7329604081        2.7998013991       27.5675856211
  C         8.2127106270        2.3880419484       24.3832629237
  C         8.7226412035        4.3965666605       23.3138937357
  H         5.9712013357        4.7957782559       24.1864580058
  H         6.7076883213        6.3326174843       24.7925982828
  C         5.1680301311        5.5150670400       26.0333863743
  S         7.0884299825        0.6038477112       26.2998608693
  C         6.6871770081        1.4408551252       27.7603856510
  H         6.4544606781        3.5569355900       28.2779838697
  C         8.6006545760        1.7944012007       23.2155112515
  H         8.5350329942        5.4544201524       23.3164062882
  C         9.1780253014        3.8350935014       22.1889686950
  H         5.0070936993        4.6504720110       26.6661335072
  H         5.4406039938        6.2988207244       26.6730039077
  C         3.9042908737        5.9209426744       25.1926976104
  C         6.3159839262        0.7947258052       29.0290386217
  C         9.0768706551        2.4955593083       22.0689234037
  H         8.5248254367        0.7365875502       23.1437277047
  C         9.5093982921        4.2468186307       20.9146493743
  H         3.6957078420        5.0369657741       24.5407716001
  H         4.0575050474        6.9053076918       24.7447396263
  C         2.8259555285        6.1346948299       26.2048367941
  C         6.3894579993       -0.5631766661       29.2938645530
  C         5.8816537079        1.6303391587       30.2057898960
  C         9.4558397111        1.8274971792       20.7173397506
  C         9.7171076404        3.1932751237       20.0285716551
  S         9.7148950218        5.7633926896       20.1872009088
  H         1.9617332862        6.4093539879       25.6073081835
  H         3.0093248378        6.8846591285       26.9466685992
  C         2.3539952131        4.7413356960       26.7924717245
  N         6.8025354876       -1.5339509737       28.3695191638
  C         5.9349823388       -1.1198473904       30.4808349776
  C         5.5110701216        1.0433493039       31.3732912544
  H         5.7551513739        2.6894572849       30.0561908312
  C         8.1686583427        1.2464139782       20.0990801018
  C        10.6959095981        0.8986134367       20.7254845592
  C        10.0540258103        3.6419869692       18.7507885698
  C         9.9542425225        4.9951631398       18.6737320858
  H         1.5288751234        4.3819270793       26.2768325357
  H         3.1375740582        4.0239104971       26.6096441455
  C         1.8516517302        4.7993120519       28.2512603425
  S         6.6136607934       -2.9855809935       29.0692924842
  N         6.1718424424       -2.5574228725       30.5662209740
  C         5.5353858512       -0.3814474293       31.6254894053
  H         5.2191867902        1.7688096766       32.0733753927
  H         8.0059623993        0.1888538047       20.5059712240
  H         8.4511867011        0.9377927374       19.0420301104
  C         6.9443280189        2.0827974826       19.9636378231
  H        10.7626157421        0.6915063994       19.6417008580
  H        10.5682543938       -0.0461980603       21.2444237234
  C        12.0245901554        1.7129550755       20.8708979275
  H        10.1577445155        2.9242018282       17.9931659215
  C        10.2141115616        5.8452924683       17.4941672835
  H         1.3334612083        3.7827680697       28.3558514676
  H         1.0387551431        5.5634828561       28.3547746131
  C         2.9641127652        5.1230743013       29.1610707583
  C         5.2474312274       -0.9332068619       32.9564933301
  H         7.0297942438        2.7193751108       19.1445380840
  H         6.8200998607        2.8279634496       20.7291881049
  C         5.6638726877        1.3321721204       19.9232761777
  H        11.8701223749        2.4564123800       21.6583786205
  H        12.1741521558        2.3366054808       19.9563477915
  C        13.3298826252        0.8947948756       21.1122607765
  C        10.2251069170        7.1979319998       17.3810696549
  C        10.5438100279        5.0881897231       16.2529020078
  H         3.8799243366        4.5549229432       29.0193080229
  H         3.3231330355        6.1818993839       29.1118156115
  C         2.4955001671        4.9339988039       30.5517479041
  H         5.3982732936       -1.9548065170       32.9000322684
  C         4.9599330340       -0.4714998857       34.1815633885
  H         4.8896797731        2.1010034188       19.9409816082
  H         5.4964160876        0.6612809165       20.7387930859
  C         5.5331624617        0.5662497062       18.5851384779
  H        13.1571850445        0.1405235978       21.8017257444
  H        13.5977136716        0.5185165151       20.1173296492
  C        14.4872086070        1.7655247943       21.5399823196
  N         9.9493526015        8.1009895333       18.4442983843
  C        10.5109105202        7.8627813673       16.2118191253
  C        10.7490320313        5.6809399541       15.0351460068
  H        10.6569799264        4.0218954420       16.0899362819
  H         2.3974303216        5.9250287727       30.8437732754
  H         1.4426081129        4.4948628121       30.4976437742
  H         3.1629797346        4.2236184965       31.1695836836
  S         4.8507605899        1.1727493038       34.5782160426
  C         4.8644212333       -1.4418797648       35.2258723639
  H         5.8415068534        1.1869056308       17.7458842599
  H         6.2019295630       -0.2996510880       18.6816300574
  C         4.0749956631        0.1292029190       18.3788494653
  H        13.9858041773        2.6651558919       21.8651588668
  H        15.2251367321        2.0819911534       20.8029686778
  C        15.3401337895        1.1998065559       22.6687754282
  S        10.1483252926        9.6248053194       17.9084092143
  N        10.4741814445        9.2613800100       16.3830307740
  C        10.7462232733        7.1944338649       14.9827076713
  H        10.8960096904        5.1016995226       14.1374069552
  C         4.4748327580        0.4886539073       36.2116357832
  N         4.5558825021       -0.8581311753       36.3667128771
  O         4.9515801801       -2.6709443608       35.0256638537
  H         3.7288490996        0.2405581043       17.3424996831
  H         3.3737073974        0.7869067488       18.8617912398
  C         3.8084294354       -1.2766241110       18.7939830459
  H        14.6900285659        0.8792498676       23.4346704654
  H        15.8741942917        0.2893115235       22.3651677766
  C        16.1684672541        2.2229342206       23.3993932169
  C        11.0158555554        7.9845625086       13.7949826354
  S         4.0204923318        1.4609962592       37.6345035045
  C         4.3498962626       -1.6887165069       37.5950846820
  H         4.5721014092       -1.4666787156       19.5783084216
  H         2.8004097430       -1.3576650549       19.2585039478
  C         4.0026825351       -2.2293760625       17.6561999875
  H        15.6518298691        2.5717531147       24.2756678617
  H        16.3921297046        3.0085939778       22.6967515819
  C        17.5296144216        1.6194167493       23.8163203425
  H        10.6140227525        8.9736745695       13.8054154406
  C        11.5811166486        7.6476883390       12.5773078084
  H         3.6024568494       -1.1516896535       38.1609859816
  H         4.0654053721       -2.6824129007       37.2056401133
  C         5.7305569814       -1.8775669834       38.3046031391
  H         4.2799915822       -3.3050606257       17.9149261041
  H         4.9431443043       -1.9400611029       17.1080160576
  C         2.8149912833       -2.3010796897       16.7118801575
  H        17.9444689733        2.3886069612       24.5067179618
  H        17.3503073776        0.7504684522       24.4526130315
  C        18.4531542331        1.3972808355       22.6971064494
  S        12.2387478456        6.0702046367       12.0580665538
  C        11.5980399998        8.6779349644       11.5189408765
  H         5.7298986012       -1.3473355434       39.2664342601
  H         5.8223973159       -2.9441551024       38.5410578646
  H         6.5964804163       -1.6009552541       37.6407347960
  H         2.3764432070       -1.4184287577       16.2984713188
  H         1.9636990124       -2.7096778737       17.1839024102
  H         3.1720891874       -2.9040562935       15.8835630413
  H        18.6648699663        2.3161035004       22.0818691769
  H        18.0582936340        0.6527458931       21.9635290843
  H        19.4114815223        1.0414231826       23.0824589258
  C        12.7788550844        6.9358824105       10.6346804149
  N        12.3082465487        8.1836213536       10.4926089559
  O        11.0805868353        9.8148862060       11.6345353710
  S        13.5520903862        6.0365637309        9.3243062717
  C        12.6003538284        9.0217306718        9.2662937609
  H        12.7287765659        9.9815860169        9.4905663555
  H        13.3959886223        8.6258353539        8.7506547903
  C        11.3439199167        9.0739890167        8.4007555572
  H        10.4603780445        9.4103878868        8.9839838974
  H        11.5261075594        9.7072744983        7.6101067179
  H        11.1131154369        7.9985917871        8.2415155758
  H        21.5165533374        8.5906290583        2.6388543716
  C        21.9068011002        9.5813670872        2.5601267114
  H        22.6265374863        9.4675840746        1.7329717645
  C        22.5856214279       10.0510061562        3.8395215008
  C        20.7375041208       10.4571193766        2.0261295368
  C        21.6829307413       10.3347807442        5.1150615501
  H        23.4623526490        9.4517378434        4.1015028242
  H        23.0844989478       11.0617275380        3.7407341362
  H        21.1891267736       11.3507667030        1.5816882964
  H        20.0788562755       10.6852988439        2.8190955919
  H        20.2438402968        9.8507512568        1.1873006317
  C        20.8938910471        9.1495341766        5.6360445084
  H        22.3766001635       10.7173639376        5.9014113564
  H        20.9329567464       11.0810153746        4.9110646962
  C        20.4113137185        9.3181208560        7.1172657417
  H        21.6182626331        8.3165397460        5.5938454796
  H        20.0984681674        8.8315812017        4.9634190437
  C        19.1180944921       10.1624576043        7.2617204848
  H        21.1296195003        9.8527201185        7.7226815121
  H        20.3522327381        8.3527137877        7.6028717592
  C        17.8092547860        9.4758745373        6.7566524177
  H        18.7694392706       10.2879332852        8.2268638196
  H        19.3582286716       11.0624733055        6.7084040385
  C        16.5726432914       10.4565075883        6.7795300876
  H        17.6085514393        8.5320575995        7.2762802546
  H        17.8571211082        9.0577375340        5.7313149393
  C        16.9168514044       11.8827094871        6.2011024745
  C        16.1184431147       11.1175070156        8.0531348417
  C        15.4347995029        9.7442526036        6.1274062883
  C        16.7215699912       12.9243912574        7.0474555089
  C        17.5268373357       12.2843812678        4.9938849619
  C        16.1935758063       12.4451475594        8.2278944224
  C        15.6967669262       10.3962401373        9.1926734304
  H        15.6956860335        9.0829997866        5.3167776317
  H        14.8129228083        9.1646062513        6.8197781591
  C        14.4316833545       10.6439468833        5.4010416228
  S        17.2725757790       14.4621176301        6.4572495791
  C        17.7132016142       13.6504780117        4.9433827318
  H        17.8725291890       11.6001932194        4.3192693576
  C        15.9128830765       12.9545310809        9.4852468603
  H        15.5645187305        9.3340360832        9.0413537530
  C        15.4435749401       10.9290270691       10.4297797732
  H        14.8371792291       11.3961962862        4.7615938057
  H        13.9442775859       11.2749269233        6.1200930838
  C        13.3340132159        9.7833830301        4.7326483615
  C        18.2476079430       14.3735955724        3.6896440476
  C        15.4682291881       12.2259061286       10.5864114002
  H        15.9958515203       13.9851062197        9.6839434015
  C        15.0662629012       10.4809954943       11.6518026123
  H        12.4097056584       10.3205342302        4.7239644761
  H        13.0384844900        8.8939868121        5.3483955109
  C        13.6087624783        9.4660045738        3.2937329790
  C        18.1334852220       15.7423251935        3.3657726786
  C        18.8239608432       13.5797302101        2.5816330835
  C        15.0904942038       12.8947365862       11.8735530205
  C        14.8217332255       11.5579042690       12.5248476605
  S        14.7711383077        9.0041103607       12.4438337761
  H        14.0920128866        8.5439614471        3.2367092763
  H        14.2503305771       10.1041037315        2.8149833135
  C        12.2556982923        9.4852366824        2.4201919351
  N        17.7832614397       16.7279583327        4.2980066395
  C        18.4674691146       16.2404247727        2.1087484112
  C        19.0545621305       14.1031932655        1.3013297489
  H        19.0591087211       12.5706010173        2.8088057719
  C        13.8358238498       13.7247880991       11.7571638390
  C        16.1390653409       13.7454718801       12.5285841273
  C        14.5299922875       11.2024687117       13.7919507303
  C        14.4086216580        9.8226293643       13.9286305469
  H        11.6532062736        8.6631764016        2.7105661448
  H        11.7189288833       10.4759117730        2.6296379437
  C        12.3221346166        9.4706230063        0.8498684824
  S        17.6179331650       18.1336408905        3.4574804730
  N        18.2921390159       17.5986158958        2.0676899028
  C        18.8415772841       15.4942396754        0.9490826968
  H        19.5067413039       13.5403368830        0.4954380619
  H        13.9107975191       14.5652704656       11.0139902977
  H        13.5493975167       14.2957411682       12.6671319300
  C        12.7205596418       12.8046033855       11.2809949609
  H        16.0497894006       14.7472139301       12.1541359026
  H        15.7902843776       13.8002100292       13.5913868792
  C        17.5345768913       13.1298054450       12.5090123711
  H        14.5423180325       11.9709589918       14.4959631973
  C        14.1518245813        9.0554355351       15.1884053881
  H        11.3281788319        9.7755630965        0.5502527130
  H        12.4145945010        8.4619812993        0.4098002656
  C        13.2849695727       10.3956491206        0.1978767722
  C        19.1794157224       16.1904893942       -0.2445641387
  H        13.0487503597       12.0938166162       10.5257485866
  H        12.2305736565       12.3076699646       12.1171076284
  C        11.5708424422       13.6239705044       10.7875677175
  H        17.9308490164       13.2661937425       11.5412692872
  H        17.4667857344       12.0436062990       12.5808102675
  C        18.5440452815       13.6068000530       13.6014570051
  C        14.2952161621        7.6890067477       15.4438617131
  C        13.7520412583        9.7555194094       16.4518463031
  H        13.2570231781       11.3551114476        0.6517580048
  H        14.2728030576       10.1239218716        0.4034301161
  C        13.0461372085       10.6272281521       -1.2485340914
  H        19.0151489493       17.2401545437       -0.2123775938
  C        19.4814874376       15.7976271303       -1.5817586668
  H        11.9402489493       14.3975482489       10.1742005017
  H        11.2635420234       14.2846313552       11.6149568808
  C        10.4290078641       12.7946497256       10.0927123732
  H        18.0212115695       14.4269335159       14.1170754903
  H        18.5364611920       12.8149540754       14.3431992016
  C        19.9682271344       13.9418999920       13.1582395796
  N        14.6773602673        6.7347937725       14.4499440128
  C        14.0484427323        7.0759200527       16.6934614714
  C        13.5113142303        9.1952420817       17.6912923344
  H        13.7484381181       10.8486723084       16.3803689540
  H        13.8788324320       10.8265678641       -1.8945523870
  H        12.2863781087       11.3327652690       -1.5742851665
  H        12.8087265796        9.6767530440       -1.7738614851
  S        19.8806301095       14.1247090501       -2.0035129279
  C        19.5732988001       16.8054190111       -2.6410242063
  H        10.8964714206       12.1281607202        9.4370747036
  H         9.8817611539       12.2378194085       10.8326151544
  C         9.4030505556       13.5795255155        9.2592135100
  H        19.9796511800       14.7207397873       12.4573689007
  H        20.3415039596       13.0533540078       12.7029417259
  C        20.7660346424       14.3688047172       14.3547609774
  S        14.7117481408        5.2414814690       15.1376998099
  N        14.2331459369        5.6579040687       16.6208678547
  C        13.6723593653        7.7383139935       17.8411902929
  H        13.2305839503        9.7923667801       18.5685595797
  C        20.1294002631       14.8225174335       -3.6870060571
  N        19.9353971822       16.1328488284       -3.7392114969
  O        19.3144205626       17.9825009365       -2.4282661874
  H         9.0435589446       14.3820461377        9.9291088738
  H         9.9213508688       13.9515695041        8.3873729983
  C         8.2073560417       12.6819922250        8.7646550011
  H        19.9599673918       14.5885937684       15.0684403820
  H        21.3447856766       13.5311443692       14.6675257755
  C        21.6542555801       15.5582468173       13.9400772003
  C        13.4867576727        6.9610599653       19.0217660745
  S        20.6737143253       13.9626701054       -5.0185770980
  C        20.0051876850       16.8936627592       -5.0129001677
  H         8.4397604652       12.0554129222        7.9089543631
  H         7.8905219132       12.0819100520        9.5466101379
  C         6.9345258477       13.4921758817        8.4071103355
  H        21.1279660616       16.3120868478       13.4070920928
  H        22.5219603140       15.2021108069       13.3598658693
  C        22.0924997752       16.2628829858       15.2253074368
  H        13.9729279789        6.0063392100       19.0631531191
  C        12.9272703018        7.2576178672       20.2669690561
  H        20.8127843974       16.4554372093       -5.6327646318
  H        20.4882112101       17.8910879727       -4.8892639799
  C        18.7352674281       16.8393551413       -5.8360224917
  H         6.3594114833       13.0114867793        7.5829712130
  H         7.2883240921       14.4222064120        7.9924535062
  C         5.9798196349       13.6421304637        9.5967157764
  H        21.7120535248       15.7775598330       16.0875150068
  H        23.1530366554       16.1766865245       15.2971149883
  C        21.6711108541       17.7141770669       15.3626722620
  S        12.2389619249        8.7830696518       20.7587547766
  C        12.8336250094        6.1579036901       21.2084290976
  H        18.0032052454       16.1631214372       -5.4348232598
  H        19.0312528248       16.6151321283       -6.7835136784
  H        18.2251760012       17.7872097810       -5.9379720152
  H         5.6268137522       12.7245964376       10.0280891181
  H         6.4809215084       14.0474730727       10.4660330405
  H         5.0581132674       14.2016288581        9.3743027009
  H        21.9993281606       18.1498452765       16.2690240687
  H        21.9430950909       18.3236340089       14.5026991413
  H        20.6034584828       17.7906961767       15.4179895340
  C        11.9757686463        7.9319465246       22.2539198585
  N        12.2035982928        6.5934241759       22.2954525126
  O        13.2369845346        4.9898494393       20.9946269197
  S        11.3110096787        8.6591456227       23.7448900446
  C        11.8774866980        5.7015575241       23.3960595759
  H        11.7103258094        4.6026339057       23.1087778783
  H        11.0239795200        6.0234867032       23.8995663728
  C        12.9912938811        5.9026934205       24.4993790256
  H        13.4060751927        4.9178234272       24.7823061251
  H        12.6718043401        6.3539120298       25.4337168659
  H        13.7557402148        6.5433362076       24.1715613975
