352
 i =    21800, time =    21800.000, E =        24.1474695632
  H        10.7572242212        7.0312717975       32.9990305215
  C        11.0858283864        6.2054150567       32.3825886612
  H        11.8801570916        6.6388930311       31.7602317766
  C         9.9259717753        5.8835200070       31.4690006239
  C        11.4971179347        4.9770592456       33.2725200463
  C        10.3209524345        5.1602119736       30.2357779922
  H         9.0868399954        5.4005768436       31.9274206751
  H         9.6594025100        6.8685678493       31.0490390924
  H        12.3753900113        4.4495735587       32.8891480418
  H        11.7033280421        5.3049919831       34.3067692468
  H        10.7211251736        4.2283588204       33.3687858124
  C         9.3218377099        5.3846649630       29.0426967579
  H        10.5266057474        4.1294052646       30.3811254169
  H        11.2736794918        5.4980216789       29.8864363721
  C        10.0073688878        5.3821750330       27.6436068209
  H         8.4915896906        4.7712180637       29.0360970870
  H         8.9796316077        6.4373050506       29.0840392059
  C         9.1674775145        4.7985323518       26.5439337514
  H        10.8549059693        4.7386473087       27.6377132348
  H        10.3842401598        6.3768743875       27.4137806958
  C         7.9328965389        5.6616197236       26.1802074138
  H         9.7127461929        4.7331643883       25.6175134268
  H         8.8592166257        3.7079152832       26.6772963931
  C         6.8412817573        4.9840953206       25.4497313738
  H         7.5782012343        6.2113507275       27.0309126868
  H         8.2854679287        6.5810664029       25.6834769988
  C         6.4970384979        3.6316819660       26.0407627332
  C         7.2942963372        4.3003322487       24.2290427355
  C         5.6099460932        5.8069996588       25.1643258878
  C         6.8293284535        2.5144309432       25.2315508215
  C         6.0062215821        3.2488256720       27.2768996000
  C         7.3802757621        2.9790770566       24.0833566423
  C         7.8221115437        5.0705168577       23.1211752839
  H         5.9211128780        6.5804932555       24.4721265616
  H         5.3751172319        6.2446778681       26.0611003115
  C         4.3182013293        5.1100049393       24.5828513890
  S         6.3579088270        1.0163363232       25.9348990009
  C         5.8936235052        1.9066574003       27.4056641344
  H         5.8954406654        4.0743723852       28.0215694126
  C         7.8380098600        2.4236814649       22.8904454540
  H         7.7502436343        6.1527203468       23.2204042501
  C         8.2605533362        4.4932215521       21.9762106016
  H         4.5245573173        4.6945951217       23.6002344989
  H         4.2095893689        4.1742428847       25.1126133650
  C         2.9902051961        5.8994502924       24.5532793989
  C         5.6319162509        1.2459780943       28.7110684415
  C         8.3088346228        3.1735965245       21.8821196877
  H         7.8801849285        1.3523804811       22.7867597375
  C         8.6886878908        4.9168488615       20.7828353883
  H         2.2945280577        5.3399528017       23.9842754026
  H         3.1882509758        6.7979099852       23.9514804201
  C         2.3527014637        6.0067565443       25.9036709417
  C         5.6433919156       -0.1626094896       29.0139816863
  C         5.1278581188        2.0582754754       29.8335393494
  C         8.6940984619        2.4894598057       20.5673677214
  C         8.9233666657        3.8834387292       19.8965840126
  S         9.0376316926        6.4694372844       20.0829614431
  H         1.6154019787        6.8194751683       25.9186412332
  H         3.0882579127        6.5624913232       26.4454066072
  C         1.8257766768        4.6630035191       26.4808540153
  N         5.9469681589       -1.1053537617       27.9937400026
  C         5.4402316401       -0.7676565754       30.2419890482
  C         4.9825687610        1.4986926577       31.1292133984
  H         5.0919368310        3.1321827254       29.7160125048
  C         7.5578061111        1.7189142488       19.8516436360
  C         9.9660966301        1.6052100935       20.6805967910
  C         9.3731955692        4.2891253019       18.6415105841
  C         9.4245333605        5.6523587292       18.5772932904
  H         0.9482663324        4.2493493614       26.0104015168
  H         2.5545513545        3.8829678140       26.4872195317
  C         1.2362445360        4.8186790674       27.8377235354
  S         5.8143005662       -2.5869079403       28.6929591767
  N         5.5942381236       -2.1248238716       30.2182474615
  C         5.1796506300        0.0547832914       31.4153591311
  H         4.7821938531        2.2119355593       31.8802810627
  H         7.4732226285        0.7679812867       20.3479750216
  H         7.8682509905        1.5290813834       18.8189130565
  C         6.2152238514        2.4355991281       19.6820902769
  H        10.3013005923        1.2983439670       19.7079892408
  H         9.7689741900        0.7289098517       21.2696626883
  C        11.1026521388        2.4476808093       21.2504321800
  H         9.7240454686        3.5178507153       17.9510669372
  C         9.8578517289        6.4142587127       17.3364648170
  H         0.6971126792        3.9327338241       28.0942116306
  H         0.5774705856        5.6848254785       27.8312115864
  C         2.2982560204        4.9362573451       28.9367695632
  C         4.9811846939       -0.5616856646       32.6464073386
  H         6.3847976953        3.3039469226       19.1059521493
  H         5.8208809797        2.7381468154       20.6572129381
  C         5.2574784757        1.6049893656       18.8937672986
  H        10.8943964014        2.7233288590       22.2740250712
  H        11.2236609907        3.4096927008       20.8145146891
  C        12.4137214965        1.6303184534       21.0434717817
  C         9.8120272631        7.7610828481       17.1880232288
  C        10.1830304584        5.6480005212       16.1103377752
  H         2.9283530079        4.0132264544       28.9143300681
  H         2.9957885710        5.7443712318       28.6809744992
  C         1.6906213028        5.1735550294       30.3203528948
  H         5.3031794133       -1.4946766007       32.5726277459
  C         4.5159203874       -0.1374225252       33.9156047870
  H         4.8687681062        0.8114528248       19.5457883263
  H         5.7717405236        1.1712841074       18.0430874856
  C         4.1553637014        2.5950560725       18.2624045130
  H        12.5632467941        0.8239315204       21.7345553718
  H        12.4232614101        1.2836006904       19.9947895654
  C        13.6880896310        2.5397208777       21.0549370995
  N         9.4403503389        8.7300533499       18.1610879622
  C        10.1487145529        8.3530698550       16.0144721383
  C        10.5405158880        6.2067778958       14.9080910066
  H        10.0390000096        4.6091256172       16.0603009411
  H         1.2730011341        6.1569266071       30.1950824824
  H         0.8521251228        4.4703084194       30.5786107318
  H         2.4440829825        5.1830648375       31.1560116718
  S         3.9597054452        1.4538983897       34.4181663796
  C         4.4765885105       -1.2113028434       34.9645520642
  H         4.0143090624        3.5343538746       18.8750315885
  H         4.4235151449        2.8178048826       17.2859031989
  C         2.8053743188        1.9137760647       18.2667980575
  H        13.5040504992        3.3128209736       20.2338827598
  H        14.5234881773        1.8683938788       20.7718282764
  C        14.0228334732        3.1803590329       22.4224674127
  S         9.4403771697       10.2062889057       17.4474279206
  N        10.0883054862        9.7272852829       16.0585533171
  C        10.5861490621        7.6290233508       14.8524375301
  H        10.6672619239        5.5494430455       14.0433100287
  C         3.9550195519        0.6648245348       36.0361106935
  N         4.0782080989       -0.6611025689       36.1269501817
  O         4.8030918263       -2.3210754485       34.7486748938
  H         2.1124766091        2.5227312334       17.8416790285
  H         2.6420342938        1.6063376403       19.2989988507
  C         2.9076654541        0.5957119772       17.4678156662
  H        14.7101830576        3.9883591391       22.2210742979
  H        13.0653295423        3.6295499176       22.6784918557
  C        14.6199690076        2.2325790133       23.4523495651
  C        10.8450933748        8.3993013072       13.6870676654
  S         3.8653417704        1.4177434382       37.6290840521
  C         4.3022624676       -1.4607155473       37.3219671864
  H         2.2113051654        0.6267126536       16.5890850184
  H         3.8557916616        0.4535226245       17.0588211408
  C         2.5198878732       -0.5762985022       18.2949536734
  H        14.1864952797        1.2496464445       23.4581774804
  H        14.3475667588        2.5949935841       24.4478956935
  C        16.1285558451        2.1172177627       23.5455743678
  H        10.4846926171        9.4214266246       13.8119137758
  C        11.3192714668        8.1763132856       12.3761589525
  H         3.6610100111       -1.1085549725       38.1752884111
  H         4.0839536666       -2.4593061482       37.1077535365
  C         5.7459040257       -1.3968295232       37.8805984601
  H         1.6061612131       -0.3646207870       18.9188956925
  H         3.2897943917       -0.8488699269       19.0722781746
  C         2.1902834493       -1.8209164682       17.5786642343
  H        16.4334916838        2.8551296422       24.2549629928
  H        16.3633147149        1.0722019008       23.8552270785
  C        16.9219847462        2.3479940307       22.2607227847
  S        11.9273749774        6.7058421108       11.7157471380
  C        11.4003011452        9.3481366525       11.4984494108
  H         5.5860754237       -0.6328588752       38.6434578650
  H         6.0565868595       -2.3542917556       38.3198355624
  H         6.4872485276       -1.1779778413       37.1218364663
  H         1.5381469123       -1.6801124398       16.7017491951
  H         1.6943923113       -2.4283690800       18.3479966069
  H         3.1820295364       -2.2373704518       17.2027054611
  H        17.9323836040        1.9812737011       22.3126427819
  H        16.9260652700        3.4253473920       22.0052164751
  H        16.3979568545        1.8776780076       21.4407609996
  C        12.2315228193        7.6143573518       10.2331406271
  N        12.0023976278        8.9553783058       10.3775262910
  O        11.0241520533       10.4771128974       11.7620370985
  S        12.8978969830        7.0389136306        8.6725604787
  C        12.2370583643        9.9409934067        9.3174730036
  H        12.5416518912       10.8392818414        9.7836246710
  H        13.1347241692        9.7328583466        8.7465496661
  C        11.0002124863       10.2566310075        8.4556383155
  H        11.2089530762       11.1994330064        7.9000954183
  H        10.7915520220        9.4577038155        7.7020778686
  H        10.1169602722       10.3266260726        9.1176480878
  H        20.8705240374       10.7483566430        3.2523317451
  C        21.8336901480       10.1733780242        3.2988980996
  H        21.4890645229        9.1460603847        3.4368030781
  C        22.6327526572       10.4482908137        4.6034695893
  C        22.5809265127       10.2571595603        2.0140056254
  C        21.5860126004       10.7401458601        5.7517981221
  H        23.2235480521        9.5803388122        4.9302203198
  H        23.3419859145       11.2029917832        4.5626140722
  H        22.0591776418       10.9259670899        1.3649160652
  H        22.5521879273        9.3303132259        1.5201196750
  H        23.5952657755       10.6580189628        2.0805154590
  C        21.1156608927        9.4362237459        6.4179647223
  H        21.9723301236       11.4267854089        6.4660869054
  H        20.6636971173       11.1979095735        5.3691631552
  C        20.3924181184        9.6531134683        7.7671710430
  H        22.0050029287        8.8721841940        6.5696175267
  H        20.4649901940        8.8494918795        5.7129004143
  C        19.0577644021       10.5045494280        7.8315606095
  H        21.1260185912        9.9644903753        8.4964487913
  H        20.0850157843        8.6811181052        8.0989517826
  C        17.8153801448        9.8458999177        7.1929142313
  H        18.8504394798       10.6547041325        8.8883102376
  H        19.2726472827       11.5431946424        7.4934580140
  C        16.6912546422       10.7483387831        6.8961785475
  H        17.5197336102        8.9991880122        7.9122949582
  H        18.1367079983        9.2818182926        6.2955430018
  C        17.1095564389       12.0870754576        6.3052772853
  C        16.3018042507       11.4577973509        8.1729067261
  C        15.4851496706        9.9832211147        6.2372806006
  C        16.8823203080       13.1612324961        7.1254628656
  C        17.6730282208       12.3592318539        5.0620473602
  C        16.3290069612       12.7871531802        8.2986581328
  C        15.7474257012       10.7729504963        9.2200500179
  H        15.8674434158        9.4423870838        5.3670330125
  H        15.2120231943        9.2945211490        7.0329829157
  C        14.2882526973       10.8914105334        5.9477912915
  S        17.2366711182       14.6191720245        6.2318871909
  C        17.8589773732       13.7222622605        4.9310691241
  H        18.0172997768       11.5372361549        4.3367179472
  C        15.9141277631       13.3957056346        9.4923759648
  H        15.7098815767        9.7296316076        9.1551881577
  C        15.3550079371       11.3367764421       10.3926534519
  H        14.5846850356       11.8365251455        5.4813938134
  H        13.7162719457       11.1924283672        6.8657636872
  C        13.2922804182       10.2037355398        5.0529279849
  C        18.2737009789       14.3341462307        3.6507800164
  C        15.4323714447       12.6391805737       10.5679570282
  H        15.9596632751       14.5188004230        9.5198155604
  C        14.9344413440       10.9165172201       11.5969426887
  H        12.3108666167       10.5597072018        5.4327006966
  H        13.4180437744        9.1468239890        5.2930402702
  C        13.3989732972       10.4763163569        3.5064146018
  C        18.2094706748       15.7172918755        3.3349476577
  C        18.7300676462       13.4747189962        2.5268410683
  C        15.1586508446       13.3011923153       11.8973923058
  C        14.7919358770       11.9431764551       12.4869882701
  S        14.6277469844        9.4324201610       12.4069768437
  H        14.4816838797       10.6024381185        3.3352129640
  H        12.9412820657       11.3650870513        3.1894829988
  C        12.8398405876        9.2477867836        2.7614886203
  N        17.9579131660       16.7816609894        4.2309017701
  C        18.4236908259       16.2638081669        2.0650636097
  C        19.0622026943       14.0219332904        1.2853832490
  H        19.0229524273       12.4319202023        2.7703671719
  C        13.8878489487       14.1277102088       11.7333507153
  C        16.2192183095       14.0368290864       12.6926762443
  C        14.4490535625       11.5282024685       13.8324362872
  C        14.3131688758       10.1633270242       13.9624999794
  H        13.6417164948        8.5036828130        2.9776858276
  H        11.9363725169        8.9059187054        3.2099902650
  C        12.6219591613        9.5781583542        1.3408980323
  S        18.0644041077       18.2252597009        3.4609107019
  N        18.4067637165       17.6934714164        2.0072087896
  C        18.7936020029       15.5103767430        0.8928284608
  H        19.6027791586       13.4077301441        0.6129144724
  H        14.1129677430       15.0187005929       11.2066417183
  H        13.5697539603       14.3981704222       12.7277326689
  C        12.6206474374       13.5273670861       11.1916325134
  H        16.4627715457       14.8996958004       12.0026846472
  H        15.8233846736       14.3632540725       13.6534511012
  C        17.5316051917       13.3749525377       13.0201238407
  H        14.3727496521       12.2532347815       14.6264949595
  C        13.8936845417        9.4954544257       15.2010455922
  H        12.3536793641       10.6668123066        1.3320230066
  H        11.7939883366        8.9548674543        1.0076576102
  C        13.7637785913        9.4078003910        0.3850358617
  C        19.1819418961       16.1200166620       -0.3343378560
  H        12.8305435564       13.0294235676       10.2138867702
  H        12.2706025319       12.7527885662       11.8368331336
  C        11.4990478033       14.6262437829       11.1887646741
  H        17.8705269708       12.9445614600       12.1008448149
  H        17.4020389590       12.5196828035       13.6946534344
  C        18.5565039960       14.4727905088       13.4505002047
  C        13.8219817613        8.0980624478       15.3889374560
  C        13.3834802739       10.3343254073       16.3167088916
  H        14.6259064190       10.0500533109        0.7271866975
  H        14.1997353977        8.3539874183        0.4184951907
  C        13.3951808826        9.8385043502       -1.0757722540
  H        19.2317156172       17.1829774999       -0.2162273094
  C        19.4262352312       15.6794361657       -1.5956981817
  H        11.6400710760       15.2960226569       10.3609766247
  H        11.4775335765       15.1194927280       12.1297758772
  C        10.1129269871       13.8941412146       11.2067491903
  H        18.9466752599       14.9859500781       12.4858665037
  H        18.0992148586       15.0175870961       14.2570639603
  C        19.6634591856       13.6908509699       14.3106327184
  N        14.1346657108        7.1411696298       14.3867336602
  C        13.3768530871        7.5312856758       16.5921630899
  C        13.1168327409        9.7661722490       17.5325891978
  H        13.2648381451       11.4450784983       16.2271288927
  H        12.3503801884       10.1648228674       -1.1181398853
  H        13.2129614547        8.9435975379       -1.6468831344
  H        14.1515558236       10.5419021153       -1.5701405537
  S        19.6814472142       14.0140986830       -2.0254053250
  C        19.4169729644       16.6475599240       -2.7281229232
  H        10.3075926970       12.8294602341       11.1355162361
  H         9.5756323196       14.1920711795       12.1029661090
  C         9.1670773554       14.2386785544        9.9716022191
  H        19.7024171636       12.6205421042       13.9292007289
  H        19.4366941724       13.6044919291       15.3815767498
  C        20.9515401691       14.5016976920       14.3343672910
  S        14.1307614299        5.6660916875       15.0817425910
  N        13.3933786281        6.1387899718       16.5258052945
  C        13.0683336073        8.3255361360       17.7195940933
  H        12.8739682960       10.4311366985       18.3259617190
  C        19.9128613367       14.6602533890       -3.6624891788
  N        19.7130204286       15.9712682497       -3.8833628753
  O        19.0774324384       17.8458536245       -2.6777484172
  H         8.3522648535       14.8748947541       10.3052665214
  H         9.7343504107       14.7257801048        9.1061754911
  C         8.4620901805       12.9665619261        9.4635587186
  H        21.7277401145       14.0116119339       14.8870639312
  H        21.3609561171       14.7503345689       13.3573861793
  C        20.7397196042       15.7889520466       15.0605519084
  C        12.6776360175        7.5636615313       18.8845171331
  S        20.2653596485       13.7088174432       -5.0775491488
  C        19.6944296978       16.6900091748       -5.1281276872
  H         9.0277939140       12.4807606964        8.7183814487
  H         8.4480136402       12.1929821972       10.2373345697
  C         7.0505727910       13.2957396250        9.0654258283
  H        20.6238371684       15.5968706976       16.1850929603
  H        19.8729042834       16.3069471385       14.7821681043
  C        21.9327083446       16.7280656961       14.9943150390
  H        13.0394383962        6.5154601387       18.8469468629
  C        12.1533547366        7.9959217261       20.0865188493
  H        20.3759216645       16.4104089824       -5.9633538126
  H        20.0906795692       17.7026148204       -4.8710210894
  C        18.3052577245       16.7581056526       -5.7102946578
  H         6.8293782415       12.6883190691        8.1650092008
  H         6.9847095282       14.3254789383        8.7517884977
  C         6.0295370152       13.0979570589       10.1308374255
  H        22.0904930567       17.2449354914       15.9131761150
  H        22.8353553578       16.1346419760       14.9733972495
  C        21.7437298225       17.7468588157       13.9285267943
  S        11.5871751382        9.6252985471       20.4300156175
  C        12.0626958764        7.0748831627       21.2384105486
  H        18.0137546712       15.6697997881       -5.8356506885
  H        18.3861594427       17.1738918229       -6.7126975806
  H        17.6781728777       17.2981826533       -5.0185450656
  H         5.2091706139       13.8937574101       10.1271802447
  H         5.7087166281       12.0333975315        9.9857532971
  H         6.5505286406       13.2763356189       11.0502574434
  H        20.8058714875       18.3858392967       13.8696910347
  H        22.6762333478       18.3644459483       13.8562599390
  H        21.7053767601       17.2144844699       13.0118458625
  C        11.2040691564        9.0625585195       22.0478593854
  N        11.4271128115        7.7796273281       22.2489391007
  O        12.3395615925        5.8553344488       21.2019987165
  S        10.6975777319        9.9976317805       23.4494688135
  C        11.0835294309        6.9572397174       23.4266016899
  H        10.5681520500        6.0751951868       23.1939093793
  H        10.3347681840        7.4325116354       24.0581710227
  C        12.3499430132        6.6340632653       24.3058974981
  H        12.8523110627        7.5588223625       24.6192654113
  H        13.0865917773        6.0549133052       23.8566823141
  H        12.0302014917        6.0035266114       25.1616238965
