352
 i =    13500, time =    13500.000, E =        25.0581179376
  H        11.8922286016        7.3183827059       32.4947125134
  C        11.7254210696        6.2621855927       32.4944562283
  H        12.6637768796        5.7527221323       32.2662852011
  C        10.7050355280        5.8357169953       31.5124381785
  C        11.2142688562        5.9994638943       33.8670192373
  C        11.1560254885        6.1472905477       30.0965458146
  H        10.5218516813        4.7144309445       31.6560631498
  H         9.8113602199        6.3860186291       31.7426205293
  H        11.9502311430        6.0238212731       34.6948150266
  H        10.4967903244        6.7656750017       34.0757215500
  H        10.7469583072        5.0003806395       33.9165864930
  C         9.9979258406        5.9143371472       29.0810424845
  H        11.9891207028        5.5118857795       29.8743917850
  H        11.4384065896        7.2099195185       30.0261763637
  C        10.5518564728        5.8159267772       27.6096594858
  H         9.4931072866        5.0080982750       29.3502342093
  H         9.4027918297        6.8022384996       29.0756533312
  C         9.5486755623        5.2175263100       26.6557155792
  H        11.5373283032        5.2927535987       27.6020593692
  H        10.6654886891        6.7881562394       27.1493675899
  C         8.3472698307        6.0885132512       26.4222154358
  H        10.0219965336        4.8954572600       25.6976385091
  H         9.3439070761        4.2882863518       27.1490709470
  C         7.2146942362        5.3707116752       25.6832693662
  H         8.0416420845        6.5584569861       27.3899744786
  H         8.6450310631        6.8923302441       25.7738581630
  C         6.8149266349        4.0909718143       26.4036303557
  C         7.5907512026        4.5171863443       24.4786969799
  C         5.9866828733        6.3177222843       25.3975203052
  C         6.9970255655        2.9292855191       25.6246197441
  C         6.4023745637        3.8182757516       27.7490737625
  C         7.4691190028        3.1889330941       24.3807733436
  C         8.0591707030        5.1760281438       23.4052832840
  H         6.2088694814        7.0224438511       24.6768085990
  H         5.8414065084        6.9134954553       26.3353731253
  C         4.7119179159        5.6479360494       25.1008044309
  S         6.5962353572        1.4909092300       26.4587206749
  C         6.2428768121        2.4263194778       27.9142358838
  H         6.2205484411        4.6072664656       28.4361223892
  C         7.9873508088        2.4976615509       23.2629639599
  H         8.1070983128        6.2969705161       23.5546885581
  C         8.4533672554        4.5712330343       22.2452688909
  H         4.9201435267        5.0924988387       24.1457147312
  H         4.4885725001        4.9509385745       25.9434826657
  C         3.5058951346        6.4948293699       24.7757991811
  C         5.8108066554        1.7211180901       29.2089178400
  C         8.3813670302        3.1919179418       22.1078860553
  H         8.1215044708        1.4394611749       23.2727031027
  C         8.8215523360        5.0109114519       21.0024784310
  H         2.8917722774        6.1376799890       23.9685492736
  H         3.7167520466        7.4224710234       24.4277281297
  C         2.7716540919        6.8851070880       26.0365878561
  C         5.8721318395        0.3510510168       29.5674456051
  C         5.2245537300        2.5000793112       30.3087394376
  C         8.7341493795        2.5916427566       20.8141899885
  C         8.9897188342        3.9619211784       20.1051319266
  S         9.0441758441        6.5169868567       20.1872542806
  H         2.0059129055        7.6659920968       25.8957137373
  H         3.4375526214        7.1470967601       26.8984823393
  C         1.9981694719        5.5726567090       26.4933611376
  N         6.2329223781       -0.7003611329       28.7086908544
  C         5.5423240005       -0.1827526806       30.8087680575
  C         4.9196684464        1.9972925171       31.5748677046
  H         5.0434631469        3.5574913714       30.1710400262
  C         7.6519193183        1.7467190927       20.1258219403
  C        10.0328585664        1.8649615470       20.8339917969
  C         9.4470361587        4.3407287976       18.8362697361
  C         9.4999981897        5.7099948439       18.7631218298
  H         1.0797829187        5.5913819227       25.8637809886
  H         2.5310670470        4.6264432365       26.2602099235
  C         1.4135784479        5.6372636965       27.8480380407
  S         6.1762831606       -2.1493953366       29.4021225426
  N         5.6333467156       -1.6132189817       30.8355962597
  C         5.2009764071        0.6188127485       31.9314497304
  H         4.5651704240        2.7221134855       32.2658335736
  H         7.2751009745        0.9300197394       20.7298514615
  H         7.9994669519        1.2473827722       19.2846920010
  C         6.4171571261        2.5284811664       19.5449821007
  H        10.2743605570        1.7147347075       19.7893452345
  H         9.9551722258        0.8861941715       21.2678948627
  C        11.1917157960        2.5134015981       21.5376430272
  H         9.5880734614        3.5731678404       18.0477395069
  C         9.9154424029        6.5169456701       17.5641664588
  H         0.7372962447        4.8213391744       28.1581172418
  H         0.8638171572        6.5840269844       27.8695052955
  C         2.5097277092        5.6470541640       28.9232573499
  C         5.1175789715        0.0195462012       33.1741329644
  H         6.7126980399        3.3825980277       18.8807225213
  H         5.9272156287        3.1155877912       20.3623417756
  C         5.3709436594        1.6748403023       18.8722555603
  H        11.0066989464        2.5918912466       22.6109896793
  H        11.2274582774        3.5085404513       21.1685614439
  C        12.4841836630        1.7797480337       21.4000045291
  C         9.9588116192        7.9365349324       17.4790442799
  C        10.1906344847        5.7858175291       16.3001496867
  H         3.2242855419        4.8828383270       28.7183521922
  H         3.1161661654        6.5713014007       28.9086422700
  C         1.9420184197        5.5825472520       30.3574881776
  H         5.4243565547       -0.9730220889       33.2808183866
  C         4.8102281289        0.4655349176       34.4327699321
  H         4.8465249492        0.9313800248       19.5535539848
  H         5.6943388549        0.9967106475       18.0269996412
  C         4.2844088822        2.4883350954       18.2299623064
  H        12.4437793527        1.0012948252       22.1353130103
  H        12.6275732253        1.3750699135       20.3960533051
  C        13.6269570638        2.7673267376       21.6218757719
  N         9.7450698361        8.8676116668       18.5036981628
  C        10.2516897019        8.5518330063       16.2237769573
  C        10.4936858620        6.4176229181       15.0847251715
  H        10.2040856876        4.6858141229       16.3326913273
  H         1.6189932392        6.5834311509       30.7166057989
  H         1.0173990842        4.9946763031       30.3103719056
  H         2.5484896118        5.0991917446       31.1075019650
  S         4.4786440343        2.0652506183       34.8685168048
  C         4.8193968621       -0.4789785618       35.5374416679
  H         4.0281599152        3.2278161686       18.9747837752
  H         4.5318504775        3.0622905295       17.4156756467
  C         2.9205388626        1.7466081406       18.0276940838
  H        13.5197998861        3.6318070308       20.9309723914
  H        14.4718492958        2.2237397603       21.1574023668
  C        14.0200806045        3.1985520079       22.9672876303
  S         9.8015403493       10.3552733142       17.8431754542
  N        10.1612898216        9.9175600036       16.3035364140
  C        10.5756852722        7.8364256818       15.0312472193
  H        10.7520481368        5.8922399893       14.1827466131
  C         4.2537445761        1.5350075623       36.4772425245
  N         4.5086488216        0.2151520506       36.6356501834
  O         5.0735865338       -1.6788736678       35.4278227446
  H         2.4672819256        2.4549224678       17.3560674512
  H         2.1877706248        1.9328938005       18.7759454213
  C         2.9076765719        0.4341597404       17.1939069687
  H        14.5585343017        4.1023833836       22.8125354032
  H        13.1183400172        3.3782681192       23.5860383817
  C        14.7985909636        2.0501894078       23.5609433212
  C        10.8626373528        8.5833710143       13.8648332044
  S         3.8627268470        2.4669848087       37.9381616599
  C         4.5460487448       -0.4363710254       37.9470953495
  H         2.1111872770        0.6683107035       16.5248268144
  H         3.8831121433        0.3074396599       16.6720009931
  C         2.6913955389       -0.8516151094       18.0265916450
  H        14.7751231995        1.1617927714       22.8709253399
  H        14.3636580870        1.6288994252       24.4578825889
  C        16.2761834369        2.3757188936       23.9745140311
  H        10.5888406331        9.5877753507       13.8035662809
  C        11.3689091031        8.2028453729       12.6152311994
  H         3.8025658960       -0.0812255638       38.6772974988
  H         4.3561989412       -1.5397247047       37.8383805712
  C         5.8401237018       -0.5054366073       38.6180035072
  H         3.6020432177       -1.3913380007       18.2918505737
  H         2.2906323859       -1.6069934394       17.3752657898
  C         1.7374342991       -0.6844799809       19.2611331776
  H        16.4360466409        3.2707079400       24.5032452907
  H        16.6099334478        1.6394251643       24.7644328780
  C        17.4032364975        2.3770761461       22.8744215605
  S        11.8953854788        6.6493651468       12.0109927409
  C        11.5678069587        9.3209475419       11.6255600024
  H         6.3162951275       -1.3872293250       38.3151234638
  H         6.4977980499        0.2470551913       38.3040371585
  H         5.7690503301       -0.4520736576       39.7348787184
  H         0.8442512820       -0.0758561762       19.0445581069
  H         2.3499718055       -0.2192755975       20.0189506291
  H         1.3981038899       -1.6435746786       19.6856720655
  H        18.3580154285        1.8497163442       23.1642056545
  H        17.6880809682        3.3193061866       22.4851832496
  H        17.1620497859        1.7659503714       21.9779727336
  C        12.2111111747        7.4137266492       10.5033955055
  N        12.1339549727        8.7761263060       10.4759943071
  O        11.3636262020       10.4910532259       11.8236450480
  S        13.0276647229        6.6257225056        9.1644313913
  C        12.4523798512        9.5618890286        9.2979131226
  H        12.6717705831       10.6016913221        9.6082522083
  H        13.2880065126        9.2175144396        8.8629184416
  C        11.3480200150        9.5830866475        8.2667650946
  H        10.3611148050        9.7397637315        8.7565767863
  H        11.5231295947       10.5123270174        7.6548462413
  H        11.3551807475        8.6468564092        7.6849241686
  H        21.0303236195       11.0498917561        3.3912534595
  C        21.4870000511       10.0601038423        3.5427601336
  H        20.7282817948        9.3607015944        3.6250544546
  C        22.4566172812       10.0211888092        4.7497302655
  C        22.2942809595        9.7482357280        2.2967011810
  C        21.8714146587       10.3606452428        6.2068952594
  H        22.8794850895        9.0414155459        4.6596742435
  H        23.2129244254       10.8467438353        4.5852880819
  H        23.2155021279       10.3334445421        2.3500111087
  H        21.8355610841       10.1297625033        1.4119410534
  H        22.5398311433        8.7110363291        2.1586359757
  C        21.1913914876        9.1485354804        6.8740857101
  H        22.6350184689       10.7473836350        6.8413858745
  H        21.1269538978       11.1946172062        6.1605956710
  C        20.4934074568        9.5665029726        8.1779437313
  H        21.8302585653        8.2902707026        7.2225905086
  H        20.4456388718        8.7971414490        6.1661340217
  C        19.2266180641       10.4251978446        7.8783737003
  H        21.2438567345       10.0978915509        8.7760686357
  H        20.2402979583        8.7013090576        8.7947431140
  C        17.9724814763        9.6213099561        7.4720813917
  H        18.9609154272       10.9599558723        8.8322493286
  H        19.4229231805       11.3597748965        7.3524708342
  C        16.6844841696       10.5472607987        7.3214136366
  H        17.7817665218        8.8771869574        8.2898337102
  H        18.1317140042        8.9494137967        6.5358944945
  C        17.0969713984       11.9058270690        6.6023507107
  C        16.2863382632       11.3082129021        8.5783916467
  C        15.5118798050        9.8315006203        6.5911855686
  C        16.8163415054       13.0208749881        7.4089734975
  C        17.6508623524       12.2777073677        5.3960899565
  C        16.3235822943       12.6486956085        8.6533567980
  C        15.8103904962       10.6355277549        9.6659311796
  H        15.9821452473        9.3092158649        5.7256676725
  H        15.0510370745        9.0812955516        7.2321085296
  C        14.3683706415       10.7236270594        6.1957252610
  S        17.2315043304       14.5243171270        6.6398773300
  C        17.7380349380       13.6639950432        5.2220437091
  H        17.6995665743       11.4347286020        4.6824094171
  C        15.9278470127       13.2142576252        9.8247280123
  H        15.9115345430        9.5581307176        9.4800361455
  C        15.4447869325       11.2008403189       10.8653119603
  H        14.7461573563       11.6807788180        6.0394107219
  H        13.7774228647       10.8314672019        7.1132064168
  C        13.4280678446       10.1805655493        5.1464839942
  C        18.1233063691       14.2827471236        3.9695489625
  C        15.5266664252       12.5382199962       10.9767636316
  H        15.8112027230       14.2444120884        9.9942736874
  C        15.0818138885       10.8868270891       12.1253555043
  H        12.5408571031       10.7322679565        5.0181574429
  H        13.1362597219        9.1285785668        5.2823624096
  C        14.0949088674       10.2082298605        3.7196217081
  C        18.0302703898       15.6681078567        3.6716793118
  C        18.6076913340       13.4544567480        2.8394229147
  C        15.0736584674       13.3605400826       12.1108640476
  C        14.8074784672       12.0372945697       12.9122557389
  S        14.8134090285        9.4075805430       12.9340676807
  H        15.1698606482       10.0558774508        3.6793046992
  H        13.9114326055       11.2577515553        3.5984069605
  C        13.2169874752        9.4670454719        2.7195380387
  N        17.7630323865       16.6351229431        4.6258236986
  C        18.4378467875       16.2004936920        2.4224505808
  C        18.9085117256       13.9769162048        1.5614825361
  H        18.8006818766       12.3701877443        3.0327961552
  C        13.8477004896       14.2666414934       11.9255295988
  C        16.1312720933       14.2725584445       12.7970011351
  C        14.5373188372       11.6505647602       14.2078260257
  C        14.4787725731       10.3153366122       14.3594636270
  H        13.0678744806        8.3505134857        2.9399435209
  H        12.2139772181        9.9122002942        2.6626180541
  C        13.8453208135        9.5434825435        1.3342239035
  S        17.6803405573       18.0441849931        3.8079097191
  N        18.2569745215       17.5842734154        2.3111821759
  C        18.7176402393       15.4247642487        1.2533364246
  H        19.3175199407       13.1882643074        0.8569025896
  H        14.1209777631       15.0756638524       11.2889555314
  H        13.6053569483       14.7179743542       12.8905305021
  C        12.7000091880       13.4773817376       11.3579973072
  H        16.3463733324       15.2067901059       12.2622072617
  H        15.6967037183       14.5846420810       13.7693440834
  C        17.4286433933       13.5829248519       13.1022448745
  H        14.2508033330       12.4299925916       14.8807191731
  C        14.0194474354        9.6355309071       15.5849082582
  H        14.4967477691        8.7061362974        1.2017771354
  H        14.4776309460       10.4540562662        1.2699272119
  C        12.7550334971        9.6136658910        0.2590149637
  C        19.0654695850       16.0691731045        0.0115389092
  H        12.8734309874       13.0108096253       10.3662070308
  H        12.4084931457       12.7297563771       12.0951013814
  C        11.4631158282       14.3491336952       11.2278640543
  H        17.7847029443       13.0364378238       12.2241323642
  H        17.1853305892       12.8992185942       13.9064535371
  C        18.4990053368       14.5355364494       13.6230226076
  C        13.9533406551        8.2680313226       15.8719544874
  C        13.5587591603       10.4647116242       16.6984807785
  H        12.0270977337        8.8760473581        0.2395259336
  H        12.1610461008       10.5513951095        0.3830051434
  C        13.4605678005        9.6841052010       -1.0891470407
  H        18.9191123184       17.1556602588       -0.0337254853
  C        19.3582718023       15.5853369869       -1.2424233390
  H        11.7129136957       15.0355215469       10.4339011017
  H        11.2776473048       14.8917056677       12.1407906103
  C        10.2332992165       13.5235604112       10.8313775391
  H        18.7720160745       15.2288296801       12.8269559697
  H        18.0607395937       15.1105566975       14.4581094259
  C        19.6917528739       13.6604899338       14.1032057677
  N        14.2964912355        7.2967410592       14.9570832633
  C        13.6224838552        7.6898943300       17.0978573188
  C        13.2224847573        9.9230372451       17.9890952562
  H        13.5674399280       11.5350873404       16.5788332311
  H        12.9654375354        9.0165439795       -1.8989627634
  H        14.5188591432        9.3579875711       -0.9787177675
  H        13.5411176330       10.7481408491       -1.3317853640
  S        19.5597608036       13.9216452866       -1.7257348752
  C        19.4738490276       16.6112395167       -2.3472211248
  H        10.6204510701       12.6661057393       10.3251520642
  H         9.6536140170       13.1383072244       11.6966581376
  C         9.2241982531       14.1808745089        9.8178377169
  H        19.8313693437       13.0231590819       13.2900920480
  H        19.3281063987       13.1091874274       14.9941925421
  C        20.9679776115       14.4909424589       14.3581423136
  S        14.1795489862        5.8188297726       15.5671800938
  N        13.6934477139        6.2735939583       17.0431920960
  C        13.2067414657        8.4438309777       18.2092608452
  H        13.0094171692       10.5215404718       18.7865960005
  C        19.8622287487       14.6243453161       -3.3945247683
  N        19.8595192133       16.0011798258       -3.4747333771
  O        19.1807566555       17.7942844634       -2.1994380860
  H         8.7250931983       15.0338533290       10.2823920080
  H         9.8341160806       14.5565562206        9.0042514534
  C         8.2803577258       13.0634785780        9.2860099268
  H        21.8815411783       13.9049799175       14.3175475591
  H        21.1990640817       15.2064893716       13.5307160195
  C        20.9330007373       15.2038670364       15.6676702105
  C        12.8195379869        7.8081743465       19.4820109856
  S        20.3673807098       13.8435537701       -4.8710500857
  C        19.9997380273       16.8408264589       -4.6556659998
  H         7.8981784583       13.2589564676        8.2358437633
  H         8.8455169785       12.1629748319        9.2634666086
  C         6.9919142161       12.9054856660       10.1655771319
  H        21.2695801188       14.4361282912       16.4027271131
  H        19.9987984713       15.5025140682       16.0154567261
  C        21.9147563668       16.3313997658       15.7484868705
  H        12.8241419726        6.7635365797       19.4656749827
  C        12.2020274026        8.2419317190       20.6062565000
  H        20.7681871773       16.4106796300       -5.2899546688
  H        20.4609697369       17.7793877771       -4.2574962894
  C        18.6703100392       17.1566413193       -5.3854182541
  H         7.2087692844       13.0146012366       11.2077664713
  H         6.4429872385       11.9562185383       10.0251288441
  C         5.9425311252       14.0223208278        9.8818472036
  H        22.1130678541       16.6228979054       16.7631690308
  H        22.8371333274       15.9570150755       15.3072468107
  C        21.4346680653       17.5436146009       14.8716957683
  S        11.6339997994        9.8248228040       20.9996282868
  C        12.0111814838        7.2326874744       21.6883404473
  H        17.9803955440       16.3026675815       -5.1320172210
  H        18.8252275916       17.1583212011       -6.5051872155
  H        18.3485586801       18.1830944847       -5.1215501350
  H         5.9202667448       14.7558977821       10.7104626631
  H         6.0813411497       14.6042322660        9.0401368942
  H         4.9189020101       13.6325680457        9.8931043464
  H        21.5487168684       17.5009354982       13.7710237193
  H        20.3805036346       17.7151832907       14.9280413427
  H        21.8833297999       18.4789431549       15.2364225489
  C        11.2901464710        9.2159383920       22.6104996475
  N        11.5690661661        7.9020554687       22.7447472534
  O        12.4223416094        6.0689084595       21.6188223781
  S        10.7241265275       10.2182991282       23.9530396508
  C        11.5549252527        7.1185620053       24.0025577122
  H        11.0730234055        6.1625078442       23.8512346217
  H        10.9311686721        7.6413529625       24.7880293750
  C        12.9032027373        6.8296746302       24.6116332521
  H        13.1577610919        5.8116137260       24.8523000827
  H        12.9378252461        7.4440095689       25.5450741272
  H        13.6894856173        7.1093086071       23.9198864509
