352
 i =    62100, time =    62100.000, E =        25.1922627220
  H         9.5249091247        5.2080787312       31.3022529862
  C         9.9862355785        6.0125880555       31.8974664357
  H         9.2343166162        6.5549143432       32.3493042951
  C        10.7068026381        6.9303364996       30.9906832106
  C        10.8772950979        5.5071937593       33.0336704783
  C        11.2424467784        6.2202312936       29.7031687829
  H         9.9856685049        7.6874920823       30.6594565575
  H        11.5424983201        7.3742612208       31.5132064169
  H        10.8181140980        4.4357200230       33.0458740592
  H        11.9034847554        5.8518121857       32.9544647429
  H        10.4287995586        5.9708154321       33.8737437660
  C        10.1140610543        5.8868528179       28.6749586185
  H        11.6843273300        5.2752192488       29.9009199156
  H        11.9319822952        6.8751036633       29.1386275799
  C        10.5847962349        5.4299252009       27.2758331078
  H         9.5417694590        5.1472854374       29.1052001985
  H         9.3750829890        6.6571761457       28.6434279076
  C         9.4620466914        4.9117135808       26.3576662581
  H        11.3914293828        4.7593193455       27.3330226560
  H        10.8547644686        6.3823520159       26.8483494047
  C         8.2379769453        5.7653652369       26.0596748004
  H         9.9503858748        4.7592748056       25.4398416420
  H         9.2731612389        3.8263116061       26.6044424143
  C         7.0830431762        5.0829083789       25.2857531436
  H         7.9245344158        6.1286204143       27.0108656979
  H         8.5452753941        6.6428908462       25.5026523052
  C         6.8682036923        3.7894378293       26.0452014510
  C         7.6273510834        4.2983074251       24.1109160386
  C         5.8017440727        5.9668485820       24.8339913249
  C         7.2228779673        2.6195625510       25.3346955704
  C         6.4168750338        3.4038036901       27.3379697660
  C         7.7120160903        2.9779232628       24.1054125697
  C         7.9094323157        4.8731466636       22.8983373330
  H         5.2141792718        5.3650663899       24.0897828903
  H         6.3426951064        6.8197288306       24.3092463189
  C         4.9156233782        6.3561397536       25.9705038521
  S         6.8765184420        1.1146207311       26.2083236973
  C         6.3833875301        2.0574302674       27.6210973247
  H         6.1717305931        4.2649684093       27.9131272781
  C         8.1191008575        2.2770070801       23.0115737367
  H         7.6847963882        5.8707533960       22.8341315015
  C         8.3997584706        4.2565026538       21.7936164501
  H         4.9385197664        5.6322118565       26.8034340853
  H         5.1610535608        7.3662119187       26.3553912417
  C         3.4471792881        6.4137278038       25.4345654865
  C         5.8345845622        1.4508265665       28.8737683180
  C         8.4274538756        2.8740962079       21.7679608633
  H         8.0891179652        1.2012290051       23.0749424040
  C         8.8296109516        4.5876663526       20.5395401497
  H         3.1545067443        5.6004920392       24.7101785212
  H         3.3408393622        7.2595906028       24.8152387729
  C         2.3749584457        6.6633365696       26.4851108459
  C         5.7146858066        0.0778334709       29.1338315572
  C         5.4141795532        2.3975652707       29.9910379427
  C         8.8392121285        2.1522642545       20.5130346902
  C         9.0952904269        3.5050740017       19.7102832687
  S         9.0292977692        6.1351265265       19.8038009602
  H         1.6281247079        7.1600548463       25.9331895837
  H         2.7738296151        7.3668352670       27.2138752732
  C         1.8714490370        5.3610353304       27.1063831426
  N         6.0677671126       -0.9134201587       28.1996526976
  C         5.3733382132       -0.4169035836       30.4288772458
  C         4.9613251510        1.9205631070       31.2010146683
  H         5.3693044808        3.4889832325       29.8502068415
  C         7.6389572868        1.4492485862       19.9044736921
  C        10.2353116964        1.3785158693       20.6539531586
  C         9.5131258789        3.9757243439       18.4471378069
  C         9.4941325669        5.3331102245       18.3924015170
  H         1.0018589157        5.0662321633       26.5550029293
  H         2.6022905391        4.5581903834       27.0584843710
  C         1.2832573166        5.6926569751       28.4743579200
  S         6.0332539709       -2.3610835656       28.9797078670
  N         5.5538134541       -1.8509736130       30.4628387822
  C         4.9475908740        0.4071312312       31.5034643998
  H         4.6367154372        2.6002131675       32.0247678402
  H         7.3663414061        0.6741282147       20.6037132581
  H         7.9242301770        0.9400530091       18.9331514842
  C         6.2931397340        2.2881320749       19.9108116745
  H        10.5685618346        1.0139492881       19.6987053874
  H         9.9556621598        0.6461348974       21.4098162295
  C        11.3999718811        2.2476793376       21.2034712002
  H         9.8868944469        3.2823819878       17.7549076114
  C         9.9057440761        6.1579551329       17.1513470076
  H         0.5255072072        4.9889309538       28.6491455950
  H         0.7980672724        6.7058728759       28.4451723792
  C         2.4173397789        5.5345009498       29.5017525008
  C         4.6204496243       -0.2980123569       32.6847086411
  H         6.5093083783        3.2855630850       19.4664701801
  H         6.0105197302        2.5926597432       20.9543609733
  C         5.1610323830        1.4743813647       19.1847314695
  H        10.9917376926        2.7407493946       22.0751599312
  H        11.6537545312        3.0753713063       20.5556480371
  C        12.6587335286        1.4860909265       21.5594886279
  C         9.9106370451        7.5333495705       17.0010563879
  C        10.2600515868        5.3698235067       15.9615123943
  H         2.7649429978        4.5081311370       29.3130213345
  H         3.1784767900        6.3052670542       29.2463400852
  C         1.9400644825        5.7866540400       30.9416544029
  H         4.7226445650       -1.3851412809       32.6214539315
  C         4.2643261343        0.0978018534       33.9174477174
  H         4.5658418220        0.8703560237       19.9483615738
  H         5.6386508766        0.6605486259       18.6166504977
  C         4.2851935159        2.3625654276       18.3625583904
  H        12.3419121334        0.7895949311       22.3579233786
  H        13.0608163581        0.9255981174       20.8031378117
  C        13.6873706203        2.4648354188       22.0751411457
  N         9.6685914475        8.4478957264       18.0339102375
  C        10.1983459655        8.1723283323       15.8022349845
  C        10.5317715497        6.0256176713       14.7518474972
  H        10.2097174474        4.2495396297       16.0231041213
  H         1.8082032409        6.8454900689       31.1947991927
  H         0.9700501258        5.3085075602       31.1356450202
  H         2.5800211331        5.3156878616       31.6817566123
  S         4.0785806421        1.7491914261       34.4304963097
  C         4.2675364531       -0.8827049588       34.9797494512
  H         3.8662089675        3.1192306131       19.0001949180
  H         4.9381018306        2.8835792053       17.6248045703
  C         3.1016793691        1.5485209337       17.8718867649
  H        13.2817033819        3.1651151154       22.8120977943
  H        13.9869314543        3.0950338202       21.2128914232
  C        14.8913361486        1.7768144268       22.8304088518
  S         9.7896293303       10.0180189626       17.4345977014
  N        10.2594965092        9.5695508794       15.9355964858
  C        10.6041934791        7.4723607552       14.6761882682
  H        10.8334161676        5.5117305533       13.8471037394
  C         3.9520554075        1.1303011265       35.9962762114
  N         3.9542631581       -0.2123770306       36.0981450549
  O         4.4670950549       -2.1088901256       34.8539739828
  H         2.4269071822        2.3703282215       17.6360854059
  H         2.6650876917        1.0140538628       18.6979616466
  C         3.2146634518        0.5994866717       16.6361643771
  H        14.5914790111        1.1149709900       23.5794995661
  H        15.5164491074        1.2838661008       22.1121265953
  C        15.9117069223        2.7025529730       23.4735315650
  C        10.9713780256        8.2194085652       13.5202526842
  S         3.6042489726        1.9472178278       37.4250497412
  C         3.7382414033       -0.8756563308       37.3579398764
  H         3.1964422341        1.1845866359       15.7085023184
  H         4.2650220482        0.2624731109       16.6785240591
  C         2.1918884295       -0.5391884811       16.6811665719
  H        15.5113058315        2.9423087285       24.3989917314
  H        16.0539570857        3.6750137345       22.9801212801
  C        17.2658510231        2.0911421402       23.6509937038
  H        11.1225710956        9.2953102281       13.7031923582
  C        11.4100491059        8.0281479102       12.2643960736
  H         2.9282378555       -0.5137580892       37.9781226638
  H         3.4301213551       -1.8933348416       37.1235694457
  C         5.0758518894       -0.9984346449       38.1376594982
  H         2.0814441592       -0.8706078660       15.6597264519
  H         1.1974088455       -0.3438410211       17.0878998351
  C         2.7937223634       -1.8150249319       17.3632449863
  H        17.7569765820        2.6042678955       24.5373044319
  H        17.2221455304        1.0438759964       24.0012788423
  C        18.2677944284        2.0195877401       22.5527204535
  S        11.7368150947        6.5258376326       11.5572215039
  C        11.6484894196        9.2330828916       11.3719926823
  H         5.2691791395       -0.3227411861       39.0514730192
  H         5.2834563257       -2.0048802936       38.4091467391
  H         5.9260535017       -0.9710604008       37.4940915430
  H         3.1710474486       -2.5066818118       16.5531415287
  H         2.0341365775       -2.3953030005       17.8613233090
  H         3.4808521225       -1.4756340222       18.0872132322
  H        19.1807160237        1.5917607235       22.9643619579
  H        18.5155100610        3.0282573465       22.2597455143
  H        17.9593114194        1.4368134991       21.7531836175
  C        12.2399632580        7.4411562564       10.1678834530
  N        12.0938245693        8.8135584926       10.1735378486
  O        11.5081427489       10.3766312053       11.7798927560
  S        13.1551474808        6.7315340351        8.8536563117
  C        12.2899738741        9.6684806591        8.9807662142
  H        12.4783959783       10.6363768653        9.4042509653
  H        13.2251562318        9.4753460765        8.4168792641
  C        11.0042836160        9.6755070671        8.1621494452
  H        10.6687960529        8.6180367053        8.0809229726
  H        10.2314399597       10.2155711707        8.7122974636
  H        11.1633561305        9.9994483328        7.1158715750
  H        22.2465369688        8.5149007283        3.6400670875
  C        22.5248566531        9.5452904010        3.3681122991
  H        23.3975620787        9.4151781719        2.6790518370
  C        23.0787635644       10.1974841319        4.6639601082
  C        21.3753990605       10.2565651701        2.6671844782
  C        22.1102128244       10.5253475397        5.8588454403
  H        23.8889209691        9.5421234765        5.0302087423
  H        23.6925088961       11.0465493091        4.3946217877
  H        20.6202504755       10.4947794659        3.3200776887
  H        21.0036667830        9.5153980049        1.9288605792
  H        21.6524811122       11.1966317434        2.1898649429
  C        21.3784514450        9.3309144169        6.4809571628
  H        22.7654278489       11.0241879508        6.5201790934
  H        21.4060997169       11.2349997922        5.4157605909
  C        20.4730857879        9.6589294360        7.6874265109
  H        22.1001645343        8.6160156005        6.9136106444
  H        20.7768942209        8.7970523565        5.7008434529
  C        19.3148209236       10.6167096808        7.3113668811
  H        20.9468508723       10.2205353207        8.4421523105
  H        20.1282135332        8.7376062492        8.1754743209
  C        17.9163087632        9.8964820004        7.1003577481
  H        19.1603957730       11.2436673769        8.1627382937
  H        19.6489042870       11.2996372336        6.5781283783
  C        16.6604063634       10.8269201993        6.9099720635
  H        17.7362714982        9.2568664033        7.9496842399
  H        18.0180513487        9.3069057522        6.1891136207
  C        17.0477343538       12.2221366037        6.2908925250
  C        16.1020203216       11.5450661511        8.0981889517
  C        15.4945993052       10.0736201669        6.1482741042
  C        16.7137841448       13.3002144771        7.0622704450
  C        17.6262656772       12.6938181370        5.1092993122
  C        16.1033596321       12.9018875648        8.2179776797
  C        15.6047051709       10.9259572629        9.2461197182
  H        15.8946578159        9.8144143668        5.1472337414
  H        15.1521561065        9.1443965873        6.6619885724
  C        14.2395582440       10.8848518290        5.8758846686
  S        17.0821902278       14.7835116261        6.4793405912
  C        17.7919380749       14.0251314054        5.0507380541
  H        17.9168510617       12.0728249429        4.2539694637
  C        15.6990599891       13.5154563896        9.3743362338
  H        15.6340063485        9.8278809663        9.1755047504
  C        15.1524376527       11.5611256019       10.3596219955
  H        14.4227782267       11.8597329569        5.3098980622
  H        13.7907412148       11.0719233730        6.8136894498
  C        13.2846481928       10.1376499299        4.9485636412
  C        18.2923413080       14.6626177423        3.7574327773
  C        15.2621109300       12.8378951177       10.5163767641
  H        15.5293835891       14.5854681223        9.3353389604
  C        14.9409614542       11.1301692659       11.5964538979
  H        12.3730357470       10.7233426248        4.8276314246
  H        13.0252644669        9.2071134266        5.4669029777
  C        13.8083876538        9.9700382903        3.4868769982
  C        18.3690268939       16.0496656814        3.4755100163
  C        18.7197457163       13.8146592664        2.6102520917
  C        14.8863788614       13.5677485379       11.7424889981
  C        14.7550204979       12.1577542105       12.4825877079
  S        14.7122079173        9.5837622607       12.3330360527
  H        14.4260457328        9.0871087665        3.4217462871
  H        14.4944132516       10.8160158547        3.2410594948
  C        12.6488451692        9.9981726868        2.5051953744
  N        17.9476880112       16.9191746949        4.4649949494
  C        18.6870627853       16.6095222906        2.2899468661
  C        18.9933808523       14.3131261466        1.3448412957
  H        18.7856071772       12.7045214299        2.7112764149
  C        13.6309770938       14.3557871723       11.6696455035
  C        16.1150518975       14.4499208316       12.2102014886
  C        14.4242356214       11.7615527404       13.7708849123
  C        14.2960200082       10.3740517727       13.8300295739
  H        11.9636291451        9.2817646793        2.9049749235
  H        12.0485526862       10.9119195037        2.4709964438
  C        13.1016598376        9.5403505060        1.1448309726
  S        18.0071911092       18.4199471404        3.8157261177
  N        18.6002586949       18.0212041799        2.3488419028
  C        18.8379916927       15.7732966019        1.1091038404
  H        19.1614438497       13.6393725067        0.5543689998
  H        13.7511770114       15.2462408452       11.0663488372
  H        13.1993763117       14.6605179963       12.7041333458
  C        12.4667016797       13.5138560272       11.1113143354
  H        16.5244952726       14.9158075241       11.2718340698
  H        15.7234156321       15.3022970119       12.8113596801
  C        17.1813184114       13.7616456190       13.0148609922
  H        14.1061346450       12.5497751385       14.4274258667
  C        13.8413510175        9.5606123992       15.0524990594
  H        12.3905257587        9.0199353861        0.7524090332
  H        13.9052239389        8.8553835739        1.1692386460
  C        13.4181144517       10.5949109528        0.1289442878
  C        18.9905550588       16.4330380588       -0.1203128743
  H        12.6334102268       13.0171538391       10.1607663666
  H        12.3047740613       12.6969045017       11.8811507405
  C        11.1504316710       14.2310490843       10.8534064024
  H        17.5594081107       12.9239796463       12.4016320307
  H        16.7010929962       13.4224717804       13.9702396868
  C        18.2617577777       14.8096877348       13.3753028842
  C        13.8070630334        8.1397551735       15.2037432994
  C        13.6448405679       10.3646626334       16.2922959499
  H        13.3769944809       11.6002134056        0.5288319369
  H        14.4704664179       10.4095660537       -0.1878611076
  C        12.5663414517       10.5574316517       -1.1581993523
  H        18.5472236072       17.4080949961       -0.0295370247
  C        19.3095326455       16.0585143780       -1.3774352975
  H        11.3487620846       14.9576524758       10.0860278809
  H        10.7780745698       14.7909170109       11.7855800156
  C        10.1007735459       13.2057678104       10.3541531822
  H        18.6670878658       15.2447176331       12.5473586445
  H        17.6694886102       15.5382915260       13.9369042352
  C        19.3358383835       14.1734594329       14.2877386300
  N        14.2241602445        7.2822759576       14.1328574375
  C        13.4783387516        7.4649406750       16.3815683661
  C        13.3114689548        9.7066921941       17.4656049364
  H        13.8854171689       11.4161573144       16.3803271638
  H        13.1183018770       10.1651383171       -2.0177458486
  H        12.4487655542       11.6184082463       -1.3945588867
  H        11.5949360468       10.2185701493       -1.0731847374
  S        19.5858396557       14.3831805747       -1.9658495366
  C        19.2688615483       17.0258246230       -2.4744977981
  H        10.3974828971       12.2385882446       10.6677967291
  H         9.0584001282       13.2603075507       10.8465538303
  C        10.0267911520       13.1771670946        8.8308254390
  H        19.7086721404       13.4159357685       13.6586396352
  H        18.8472229993       13.6562759784       15.1105629774
  C        20.4579600280       15.0827650880       14.8370335659
  S        14.1378478002        5.8010834180       14.7081284745
  N        13.4884780062        6.0969347522       16.1729272390
  C        13.1009474097        8.1932867435       17.5058880746
  H        13.1058476841       10.3423943551       18.3403285973
  C        19.8938701742       15.1907394121       -3.5447894986
  N        19.6815556169       16.4980895856       -3.5884031130
  O        19.1714899264       18.2376984411       -2.2492375611
  H        10.1700249579       14.1378109957        8.3037536764
  H        10.7391609490       12.4304029906        8.5142824036
  C         8.6314394778       12.6821927832        8.3748069071
  H        20.0246929169       15.7208132607       15.5931391058
  H        21.2332083556       14.5261496262       15.3833082569
  C        20.8672340740       16.1907675951       13.9182170436
  C        12.8202134777        7.4080746179       18.6272931270
  S        20.0710715261       14.2577967619       -5.0458199702
  C        19.6843371207       17.4030517991       -4.7328195888
  H         8.7248754781       12.3698141668        7.3178230799
  H         8.4373801943       11.6924041932        8.8961994144
  C         7.4777501691       13.6982944842        8.4793914136
  H        20.0790793987       16.9814230200       13.9644718667
  H        20.9219696933       15.8658937494       12.9060192602
  C        22.1950891890       16.8350819747       14.2862057515
  H        13.1491337217        6.4159509567       18.4946437562
  C        12.4171675708        7.7188748897       19.8884768643
  H        20.5490498299       17.1778009579       -5.3258233630
  H        20.0553347467       18.4026360478       -4.3563841992
  C        18.3233192385       17.4299976839       -5.4461393591
  H         6.7703700158       13.3899272901        7.6984696809
  H         7.8483128322       14.7363794279        8.3401302566
  C         6.8096469237       13.8447609537        9.8081568779
  H        22.9174560460       16.0763325755       14.2917927376
  H        22.3541278388       17.5681246856       13.4946934780
  C        22.1996445574       17.5304716711       15.6398828900
  S        11.8052041654        9.2581719148       20.4804070697
  C        12.4944296118        6.5811141359       20.8949497579
  H        18.1773859285       18.2774440836       -6.1563156766
  H        17.5575360878       17.6973898457       -4.7455104917
  H        18.0675685189       16.4480316415       -5.8681190389
  H         5.7546767629       13.8785267821        9.6441856219
  H         6.9557488508       12.9954684533       10.4367321280
  H         7.1352054909       14.8079898349       10.2796151610
  H        21.8031535108       18.5667278717       15.5568344525
  H        21.4955211643       17.0543926227       16.3214818931
  H        23.2076887184       17.6804140155       16.0408714197
  C        11.5555665191        8.3579418802       22.0204380975
  N        11.8484235105        7.0598174847       22.0077784744
  O        12.8515568827        5.4458638667       20.7213534946
  S        11.0058819358        9.2423964897       23.4668879149
  C        11.6707514540        6.1604377860       23.1987698133
  H        11.5141593912        5.1805458291       22.7920969870
  H        10.7544044311        6.3394274905       23.8247276392
  C        12.8339633842        6.1921799750       24.0959442334
  H        12.9812068174        5.1759950661       24.5692422629
  H        12.7491283805        6.9298324648       24.8960505768
  H        13.8512549679        6.4441348427       23.6085131054
