352
 i =    59300, time =    59300.000, E =        24.6401726880
  H        10.4579164349        4.1860100922       31.2086310801
  C        10.7040667275        5.1514838795       31.6031798992
  H         9.7477341401        5.6782542202       31.6328010879
  C        11.6532021136        5.9526379624       30.6772155742
  C        11.2666215298        4.8584439740       32.9559444677
  C        11.7407362754        5.4980545595       29.2328381476
  H        11.3203817203        7.0266549871       30.6137870398
  H        12.6667301751        5.9435447589       31.1349544998
  H        10.6237429955        4.4280198330       33.6704603553
  H        12.0213518681        4.1168200558       32.7766928493
  H        11.5565320125        5.7676858219       33.5353358334
  C        10.4064961030        5.6883344201       28.4826791299
  H        12.1827706235        4.5139450401       29.1065873400
  H        12.4536107532        6.2338549181       28.7619812373
  C        10.6184665408        5.4879794558       26.9444435167
  H         9.6694217854        4.9924798753       28.8859648245
  H        10.0457897239        6.7451863843       28.5602445941
  C         9.4291806637        4.5841870230       26.3506241722
  H        11.4997207024        4.8681084750       26.9231336811
  H        10.7363499235        6.4529733405       26.3989543370
  C         8.2120301278        5.4517270853       25.9474507649
  H         9.8245514266        3.9119394287       25.6182416791
  H         9.0325895946        3.8928990102       27.1159328349
  C         7.0571922085        4.6759112905       25.1791228585
  H         7.6988381770        5.8429083957       26.8000059082
  H         8.5492361723        6.3694342267       25.4892820124
  C         6.8006044172        3.2786385741       25.8711010275
  C         7.5507990287        3.9464363455       23.9560095487
  C         5.8108531078        5.4911592925       24.6627923026
  C         7.1260235551        2.1697756305       25.1110798737
  C         6.3679842086        2.9364553769       27.1925834778
  C         7.6274292418        2.5948319977       23.8559701282
  C         7.9752767405        4.6699944098       22.8449436380
  H         5.2274249784        4.9629949660       23.8779387076
  H         6.2291978990        6.3050040515       24.1477467822
  C         4.9971335207        5.9855423901       25.8170508562
  S         6.7614479441        0.6648015823       25.9440731051
  C         6.3382109020        1.5586288281       27.2920816718
  H         6.2234797215        3.6807996553       27.8754452044
  C         8.1038810213        1.9962655383       22.7300273540
  H         8.1267499115        5.6985121323       23.0792481467
  C         8.4568854102        4.0648097043       21.7790228325
  H         4.9598044688        5.3545977066       26.6538113213
  H         5.4904420705        6.9115717647       26.1456142042
  C         3.5377778159        6.2458574871       25.2711617690
  C         5.9518339366        0.8554966774       28.5838674740
  C         8.5153272756        2.7212596000       21.6328387074
  H         8.0916976807        0.9191723449       22.6223211624
  C         8.9252392690        4.4463519285       20.5571202405
  H         3.2501075607        5.3686424423       24.6776653803
  H         3.3937194761        7.1139610609       24.6600249481
  C         2.6246432053        6.5393921999       26.4283249359
  C         5.9786181234       -0.4959931623       28.8646930538
  C         5.4420271503        1.7471428749       29.6915096792
  C         8.9891180870        2.0200399291       20.4596589465
  C         9.2104747418        3.3851332868       19.7275465929
  S         9.2195780197        5.9812336641       19.7485883045
  H         1.7822228111        7.2032233272       26.0536179375
  H         3.0704130244        7.0062668906       27.3156707622
  C         1.9766374131        5.2601199979       26.9260645196
  N         6.4450690557       -1.5002311324       27.9992190507
  C         5.7218191462       -1.0465265303       30.1660252116
  C         5.1547153732        1.1962425913       30.9775134868
  H         5.2489410534        2.7948636822       29.5100286681
  C         7.8709762416        1.2895210651       19.7387666923
  C        10.2548585048        1.1596720759       20.5794992502
  C         9.5739424579        3.7851587521       18.3901842174
  C         9.6161246606        5.1736342938       18.2686765333
  H         1.0654616299        5.0368587773       26.3366612034
  H         2.7317459562        4.5056575836       26.5972063407
  C         1.6698770659        5.1591785330       28.3517406468
  S         6.6089793357       -2.8942187613       28.7986772893
  N         5.9135285970       -2.4788269626       30.1809642512
  C         5.2602862958       -0.2520251164       31.2757195231
  H         4.6513778487        1.7855668276       31.8341019290
  H         7.5443702279        0.4223233491       20.2804813554
  H         8.2172180270        0.9781311694       18.7807964537
  C         6.5453038376        2.0681535661       19.5309533004
  H        10.3191258131        0.4710031149       19.6722916261
  H        10.1424246389        0.4125303175       21.3985369592
  C        11.5817199545        1.9254003107       20.9095177951
  H         9.6894113369        3.0307519014       17.6320792751
  C         9.8377515181        5.8868717512       16.9394229106
  H         1.0990166127        4.2513201642       28.5003359253
  H         0.9583929280        5.8892815406       28.6671633844
  C         2.8599415424        5.2185973206       29.2505854981
  C         4.9809193850       -0.8820222959       32.5700870096
  H         6.7863711851        2.9903957042       18.9531490489
  H         6.0779238041        2.3570963512       20.4728681089
  C         5.5149043659        1.1474236416       18.8703374537
  H        11.2974907327        2.5035669926       21.7652533659
  H        11.8603017868        2.5216245786       19.9922348106
  C        12.6574683623        0.8592326632       21.2474679076
  C         9.9570460799        7.2668199133       16.8554077643
  C        10.1003134788        5.1441431160       15.7294042224
  H         3.5438061060        4.4271289274       29.0762153299
  H         3.4820228941        6.0719759278       29.1266032553
  C         2.4181860082        5.0698281338       30.7230007218
  H         4.9928797755       -1.9244177217       32.4707218050
  C         4.6864368110       -0.3641107186       33.8137449336
  H         5.3596607364        0.3336352113       19.6093423957
  H         5.8972724985        0.7207116236       17.9849380817
  C         4.2661919384        1.9116757949       18.4353571924
  H        12.2569007273        0.2199479522       22.0141396812
  H        12.7681869125        0.2604982243       20.3152762911
  C        14.0216370506        1.3335399195       21.6622862078
  N         9.7848758008        8.1169486102       17.9041725720
  C        10.2430972547        7.9309355889       15.7019881700
  C        10.3191770261        5.7990761056       14.5323365373
  H         9.8899057273        4.0492032939       15.7902930987
  H         1.7922038490        4.2125181630       30.8608700496
  H         3.3576050511        4.8522277925       31.2523451919
  H         2.0074826820        6.0656182855       31.0804329147
  S         4.7301057534        1.2691863257       34.3645939803
  C         4.4647956834       -1.4173608929       34.8497041551
  H         4.0961459059        2.7987144387       19.0790321132
  H         4.4587118552        2.4387533986       17.4895895827
  C         3.1133352909        0.9659764608       18.3803101945
  H        14.2515107895        2.2114043246       21.0244527859
  H        14.7577957492        0.5750682088       21.4438615152
  C        13.9467702446        1.7797467390       23.0956663891
  S        10.0030625529        9.6551854046       17.4504877178
  N        10.2086554057        9.3185912847       15.9008883590
  C        10.4231608189        7.2905721825       14.4701607232
  H        10.2698011282        5.2212050732       13.5875668665
  C         4.4263762390        0.6016178024       35.9108396506
  N         4.3062799453       -0.7495169301       36.0431369730
  O         4.5275050092       -2.6125528572       34.6288583470
  H         2.2133803159        1.5797975455       18.3188477316
  H         2.9866232859        0.4261979444       19.3488338937
  C         3.1463552427       -0.1140838829       17.2031683094
  H        12.9687168190        2.3535912310       23.1094095110
  H        13.8348150521        0.9415030857       23.7508226286
  C        14.9795121509        2.8323988548       23.4435986505
  C        10.5809668487        8.1075868360       13.2896078668
  S         4.0580676614        1.6101060817       37.3322480170
  C         4.3003334511       -1.3578459103       37.4114396242
  H         3.1224994736        0.4059110117       16.2804088560
  H         4.0367368572       -0.6901316835       17.2505676065
  C         2.0294456727       -1.0782929905       17.3664268716
  H        14.7116971619        3.5113609957       24.2392111856
  H        15.1192893679        3.4970918761       22.5820887420
  C        16.3506427237        2.2137861942       23.6742164526
  H        10.5548766820        9.1400823592       13.5200966569
  C        10.9474163131        7.8199601382       12.0049949273
  H         3.8511011437       -0.7132411258       38.2098714277
  H         3.6357247834       -2.2242876883       37.2554010412
  C         5.7300317065       -1.7937638732       37.8074544559
  H         2.0756740547       -1.8026360230       16.5696566057
  H         1.0664931856       -0.6056550641       17.3620164694
  C         2.0963251784       -1.9570952541       18.6424582910
  H        16.6557671199        2.8712235337       24.5275780532
  H        16.2511715634        1.2266263558       24.0846764166
  C        17.3079303817        2.0897394231       22.6005030439
  S        11.2974508964        6.2706297708       11.4613951393
  C        11.1316677797        8.9158101515       11.0165018449
  H         5.7266906245       -2.2837881888       38.7865838594
  H         6.0261370911       -2.5425134632       37.0139484650
  H         6.4173486127       -0.9436673655       37.8225414956
  H         1.8659618593       -1.2866722850       19.4227021226
  H         3.0252825065       -2.4465267697       18.7453602908
  H         1.2453453534       -2.6931086239       18.5989768096
  H        16.9983348256        1.4442620351       21.7856801518
  H        18.2024791853        1.6484641448       23.0322343195
  H        17.5521700165        2.9836597574       22.1126015308
  C        11.5790320022        7.0186797655        9.8936671833
  N        11.6553847446        8.3724946187        9.9277313557
  O        10.9598370120       10.1310527784       11.1917066786
  S        12.3008223805        6.2074560737        8.5241221788
  C        12.0192211959        9.2310499322        8.8088113346
  H        12.2905441060       10.2172080193        9.1486127589
  H        13.0375258970        9.0005405192        8.3428203776
  C        10.8442252328        9.3315801969        7.7234275722
  H        11.1149476035       10.0350393534        6.9060802902
  H        10.4856511294        8.4194689749        7.3337078888
  H         9.9571715226        9.8108650945        8.2449971274
  H        21.9373974764        8.5682584103        3.2123198641
  C        22.4890199849        9.5224559103        3.2435162443
  H        23.4863740060        9.1273888022        2.9255557453
  C        22.6803521435       10.1496268873        4.6630053482
  C        22.0278772050       10.4956747030        2.1984246853
  C        21.4341346030       10.4421180750        5.4167713391
  H        23.3831129017        9.5721109614        5.2868253851
  H        23.1420020194       11.1718676549        4.2735634591
  H        21.0949509813       11.0720293761        2.5298060449
  H        21.7021516592       10.0092481583        1.2897613650
  H        22.8326410424       11.2573402604        1.9165115205
  C        20.8643886557        9.2153696807        6.1335796835
  H        21.6175077573       11.2351738029        6.0870878340
  H        20.7020927180       10.9465826361        4.8275855227
  C        20.1984335189        9.3884388179        7.4890111749
  H        21.7016191093        8.5555650132        6.3119324181
  H        20.1543942663        8.6643809944        5.6541264582
  C        19.0821540747       10.4086664649        7.4378317621
  H        20.9477626247        9.8584211923        8.1385402593
  H        19.8691805899        8.4522639053        7.9210972412
  C        17.7807518496        9.7618503815        6.9799578953
  H        19.0057088289       10.8642306417        8.4368750804
  H        19.3204119339       11.1780906492        6.6736417310
  C        16.5891181886       10.7459017778        6.8560301503
  H        17.5169499005        8.9280863281        7.6264143489
  H        18.0363672332        9.4456123794        5.9389420276
  C        16.9289874555       12.1531402994        6.2562536337
  C        16.1402760773       11.4056290389        8.1102196690
  C        15.5092740906       10.0851514782        6.0154703223
  C        16.8007121293       13.1967605206        7.1335869468
  C        17.3537546819       12.5198104088        4.9492641779
  C        16.2102667122       12.7617727747        8.3225595802
  C        15.6265214731       10.6485969339        9.1508843399
  H        15.8807962233        9.9182301525        4.9713997271
  H        15.3100255434        9.1461568553        6.4389578712
  C        14.2586576186       11.0166663248        5.9026119227
  S        17.2838163023       14.6499194188        6.3819418356
  C        17.5436739285       13.8415516149        4.8579190923
  H        17.4368342633       11.7274422828        4.2219508727
  C        15.9126158707       13.2868304554        9.5601996796
  H        15.6131017804        9.5819813576        8.9068484131
  C        15.2253319637       11.1612970150       10.4093809147
  H        14.5008432799       12.0461265576        5.5564917130
  H        13.7714224983       10.9819606366        6.8985745619
  C        13.1711764081       10.5701728188        4.9474556636
  C        17.8445775361       14.4898983921        3.5473345424
  C        15.4232388558       12.4707983793       10.5903208194
  H        15.8025440146       14.3608492811        9.6978079029
  C        14.7765139407       10.7668728142       11.6308889451
  H        12.3877074687       11.3615910847        4.8867863712
  H        12.7354506485        9.7029464276        5.4266835622
  C        13.5610798274       10.3066718001        3.4494196149
  C        17.8513523689       15.8693332017        3.3390187943
  C        18.2054962800       13.6148981854        2.3625475364
  C        14.9544321529       13.1512909310       11.8815180975
  C        14.5411116269       11.7690498725       12.5273353331
  S        14.3691193526        9.2111096524       12.2334350378
  H        14.3424655380        9.5912585640        3.3515547560
  H        13.9959083875       11.3176518220        3.1006309531
  C        12.3844667660       10.0474242884        2.5756953040
  N        17.6197486162       16.8911004253        4.3007291238
  C        18.0946275225       16.4220758925        2.0619179449
  C        18.4250073992       14.2690122429        1.1165845109
  H        18.3392766588       12.5709936925        2.4844934962
  C        13.7424899511       14.1063302729       11.7099996700
  C        16.1346623310       13.8268538814       12.6290213224
  C        14.0667122324       11.4176884049       13.7975858922
  C        13.9898391959       10.0138723789       13.7875101174
  H        11.5674168195        9.5967299729        3.0920186612
  H        11.9934452146       10.9918010575        2.3714098468
  C        12.6703135093        9.3501823829        1.2625291403
  S        17.6146488934       18.3671061701        3.5725159593
  N        18.0360283083       17.8093990431        2.0833853981
  C        18.3237348061       15.7201322863        0.9256673854
  H        18.6625582239       13.6621995022        0.3144331551
  H        13.9506810937       14.9442230214       11.0551761277
  H        13.4505264973       14.4953360111       12.7075432900
  C        12.6012486547       13.3885694037       11.0309620095
  H        16.5442928655       14.5854232789       12.0317728350
  H        15.9006150005       14.3456972373       13.5537304909
  C        17.1685282300       12.8082751167       13.1803413400
  H        13.9367156433       12.1268743750       14.6036115536
  C        13.7164266140        9.2078553366       15.0309484934
  H        11.8861618456        8.6321547066        0.9151922943
  H        13.5239741209        8.7377402718        1.4649405881
  C        13.1988821057       10.2672397577        0.1342800548
  C        18.5488884237       16.4609403087       -0.3434214963
  H        12.8445432622       12.9336759002       10.0126609061
  H        12.3769978348       12.5058043070       11.6764928847
  C        11.3100285273       14.1047831629       10.9625900303
  H        17.1537060751       11.8630904642       12.6666056745
  H        16.9077850558       12.5791735242       14.2000889843
  C        18.6846764978       13.1755981567       13.0676009905
  C        13.6464469069        7.7923453002       15.0326909834
  C        13.4869792702        9.8805046576       16.3461613491
  H        13.4392954556       11.3240311134        0.4929043642
  H        14.1733514889        9.8658352617       -0.2444738783
  C        12.2363233623       10.5031859614       -1.0186568916
  H        18.3454721635       17.5282174780       -0.3001456391
  C        18.8382283685       16.0306207018       -1.6498750952
  H        11.5443867461       14.9436959456       10.3630270630
  H        11.0493532587       14.4343058664       11.9841246727
  C        10.1798964218       13.1157792369       10.5152626050
  H        19.2676852192       12.4905706553       12.4161381275
  H        18.7676192603       14.1249529755       12.5305545695
  C        19.3530732856       13.2985488912       14.4129716067
  N        13.8208896220        6.9391432539       13.9500676555
  C        13.5023137987        7.0376868624       16.1763614206
  C        13.2247447844        9.0889084284       17.4841563202
  H        13.5174764050       10.9724213583       16.4857785665
  H        12.4992838412       11.2450762389       -1.7718305800
  H        11.2235692886       10.6875138294       -0.7425273749
  H        12.1143120139        9.5015455739       -1.5059762678
  S        19.3372832027       14.5139396513       -2.1192111214
  C        18.7830631925       17.0892251282       -2.7207410878
  H        10.5974043899       12.4205950713        9.7761254958
  H         9.9124158149       12.4411248283       11.3407104591
  C         8.9172734497       13.7251802109        9.9623214627
  H        19.5927509715       12.2700270607       14.7883772121
  H        18.6802267316       13.7090117725       15.1122230331
  C        20.5935523706       14.1586069153       14.4246550018
  S        13.7721208686        5.3891647881       14.3736860205
  N        13.5585234885        5.7102176604       15.9658477449
  C        13.2281066086        7.6314926575       17.4509673362
  H        12.9640593969        9.6648222981       18.3559863746
  C        19.4480866686       15.1782537122       -3.7484034580
  N        19.1838987689       16.5106152756       -3.8476684458
  O        18.4078358091       18.2481785051       -2.5928256594
  H         8.2358149980       13.8316241623       10.7711192757
  H         8.9967111961       14.7683563004        9.5699957591
  C         8.2896813972       12.8940407198        8.8167284128
  H        21.2005614867       13.9063505727       15.2835255009
  H        21.3044894894       13.9902030415       13.6376121406
  C        20.1764986330       15.6253548864       14.5982555312
  C        12.9817573607        6.8432096155       18.5721391101
  S        20.1125713994       14.3295507068       -5.1697759037
  C        19.3081139107       17.2426338616       -5.1346684398
  H         9.0016641922       12.6989180427        8.0520602297
  H         7.9182085964       11.9027870887        9.0567963336
  C         7.0028753976       13.5236966008        8.2189862003
  H        19.6909673147       15.6853611065       15.5718267910
  H        19.5032927835       16.0602130952       13.8446322414
  C        21.3614942718       16.5240575164       14.5830183178
  H        13.0629866037        5.7541027088       18.4412403184
  C        12.5235031517        7.1461445113       19.9046243642
  H        20.1225539359       16.9622578096       -5.7382501786
  H        19.6224546482       18.3120252508       -4.9689549848
  C        18.0274040218       17.2412383119       -5.9066499575
  H         6.8089621528       12.8913441164        7.3633009989
  H         7.2209388188       14.4717171119        7.8286785558
  C         5.6481115473       13.4601251922        8.9356780292
  H        21.1198407806       17.4955954923       14.9934280032
  H        22.1144595052       16.1827748326       15.3113942709
  C        22.0047831665       16.7598283614       13.2217445921
  S        12.0412041115        8.7031863509       20.4492869518
  C        12.4085507203        6.0202214532       20.8115059249
  H        18.1881921431       16.4638584963       -6.6910966458
  H        17.8394152390       18.2249282149       -6.3149789484
  H        17.2151393348       16.7937822329       -5.3222877939
  H         5.7471802664       13.2094749628        9.9626352440
  H         5.1951563681       14.4561552598        8.9566907395
  H         4.9521607462       12.7448636524        8.4350734809
  H        21.2134426723       16.8063253115       12.4508011008
  H        22.5032691905       17.7121054231       13.2120629720
  H        22.7252051795       15.9929934560       12.8647439125
  C        11.8151905574        7.8440064692       22.0010237776
  N        11.9909898163        6.5311910973       22.0128644957
  O        12.7152958095        4.8476201238       20.5671702205
  S        11.2478650788        8.5579196524       23.5439005532
  C        11.8438261472        5.7057704758       23.2487847866
  H        11.5590313299        4.6834103213       22.9424357380
  H        11.0370552559        6.0165767193       23.9657145215
  C        13.1828146853        5.8278972375       24.0125469550
  H        13.1320356730        5.0457124766       24.7360285392
  H        13.1165435163        6.6831450340       24.6631138445
  H        14.1640350753        5.8629964610       23.4532069275
