352
 i =    85600, time =    85600.000, E =        25.0984735950
  H        10.5989703720        7.7759169649       31.5227656174
  C        11.6096121608        7.5514349489       31.7910217836
  H        12.1754671099        8.4896054593       32.0238952987
  C        12.3077997602        6.7360642426       30.6628225778
  C        11.5840750384        6.6955718213       33.1034466186
  C        11.5517846015        5.5739104193       30.1471780573
  H        12.6715949590        7.4428471136       29.9079136842
  H        13.1939739109        6.2803856496       31.0878959058
  H        12.2853231468        7.0718733473       33.8588628852
  H        10.6249119184        6.6321538175       33.5527062392
  H        11.8918390853        5.6670486660       32.9767830787
  C        10.3994699889        5.9385407421       29.1841252212
  H        10.9615962280        5.1004971751       30.8925366001
  H        12.2202947935        4.8468446091       29.7518208638
  C        10.9981850768        5.8809346283       27.7934184556
  H         9.5428632485        5.1720465851       29.0523805659
  H         9.9003472848        6.7760749071       29.4915491748
  C        10.0663701940        5.1666831700       26.7419702336
  H        12.0388878518        5.5383872805       27.6964151460
  H        10.9991897676        6.8903386681       27.4265043581
  C         8.8213008282        6.0075558771       26.4430481823
  H        10.6194521731        5.1544254148       25.7850083285
  H         9.8236910465        4.1461335880       26.9584393195
  C         7.6444427612        5.3271725079       25.6515497676
  H         8.4060000384        6.4246443153       27.3684774747
  H         9.1549194056        6.8497452881       25.8652059776
  C         7.2357995905        3.9721273716       26.3577408155
  C         8.1203631091        4.5416765351       24.4076999602
  C         6.3886128707        6.1791468633       25.2944772480
  C         7.5201105662        2.8510762166       25.5980754752
  C         6.6499708306        3.6989337512       27.5675713767
  C         8.0389345053        3.1685270254       24.3313314578
  C         8.4975113246        5.1614808663       23.2291676693
  H         5.8668705387        5.5209397418       24.5615009992
  H         6.6863324836        7.0429659973       24.6612218047
  C         5.4145195189        6.5556954226       26.3876355338
  S         7.0151633351        1.4323028815       26.4138251123
  C         6.5434727224        2.3544611471       27.7610969952
  H         6.4397724319        4.4453374191       28.3463988550
  C         8.3027391658        2.5241691958       23.2013448774
  H         8.5408284916        6.2164360781       23.1918062356
  C         8.7470425270        4.5132879744       22.0692302519
  H         5.5282382518        6.0555989842       27.4093793029
  H         5.4440569574        7.6335481396       26.6969106616
  C         4.0137800811        6.3187060399       25.8252921082
  C         6.0077012570        1.6192215048       28.9498036752
  C         8.7601728490        3.1643640339       22.0187050386
  H         8.1458109902        1.4460748148       23.2168869638
  C         9.0514692441        4.8699980167       20.7611016614
  H         3.8497038065        5.3157585171       25.5326270854
  H         4.0507273085        6.8525314169       24.8937497053
  C         2.9142360899        6.7844738982       26.8017327801
  C         6.0623109076        0.2258366123       29.2401505377
  C         5.6196416402        2.4446633465       30.1018371095
  C         9.1477935021        2.4068121194       20.7434074862
  C         9.4399033673        3.7551662187       20.0123341835
  S         9.3776960677        6.3302597126       19.9775030922
  H         2.2690111356        7.4725026771       26.2794819123
  H         3.3688353893        7.2694005224       27.6026076955
  C         2.2398930844        5.5946611687       27.5351000716
  N         6.3548455370       -0.8207392371       28.3118601197
  C         5.8592351744       -0.2568582149       30.5379796615
  C         5.3453652186        1.9647472519       31.3794461713
  H         5.3884191552        3.4929224559       29.9733476966
  C         8.0289016789        1.6352973867       20.0650253909
  C        10.4563367052        1.6647025525       20.9386337161
  C         9.8511485363        4.1249384883       18.7041536398
  C         9.8884240642        5.4994549452       18.5390492865
  H         1.7331440222        4.8804390367       26.9231407330
  H         3.0405758986        5.0591970108       28.0176936388
  C         1.2395141458        6.0736689690       28.4915460310
  S         6.3085989491       -2.2532141141       29.0938841959
  N         6.1033207795       -1.6792873858       30.5555211563
  C         5.4707106920        0.5432523238       31.6720872677
  H         4.9905929942        2.6291218788       32.1053313883
  H         7.7144933634        0.8133920691       20.7704390538
  H         8.4218091172        1.1004380365       19.2081972649
  C         6.7957480460        2.5526711591       19.7742115602
  H        10.7052983981        1.0657034736       20.0383932364
  H        10.4012360391        0.9892991912       21.7513577013
  C        11.6839221791        2.5555939470       21.2969021073
  H        10.2384274992        3.4194850002       17.9929479215
  C        10.2499772379        6.2137456549       17.3517839803
  H         0.5984870313        5.3075397665       28.8263273373
  H         0.5780520089        6.8839426793       28.1462976803
  C         1.8348593296        6.6532968860       29.7949839273
  C         5.3114518445       -0.0921390363       32.9645917721
  H         6.9853148081        3.2387598548       18.9072246521
  H         6.5233928150        3.2179601464       20.6018638888
  C         5.6289652099        1.6261648018       19.3873621965
  H        11.5373354262        3.2033495472       22.2133072376
  H        11.9759948871        3.2937501036       20.5584257170
  C        12.8803840831        1.7173762638       21.6213698490
  C        10.3454108802        7.6437435162       17.1726065024
  C        10.4655092384        5.4569848211       16.0466493174
  H         2.5883561419        7.3536389798       29.4399759248
  H         1.1910074979        7.2362381342       30.4127673789
  C         2.5848432150        5.6846165282       30.7299317737
  H         5.4098926009       -1.1399094119       33.0007058522
  C         5.0269054558        0.4440621165       34.2218028256
  H         5.2999391793        1.1978422739       20.3493608542
  H         5.8752993172        0.8354687804       18.6999875668
  C         4.4680913713        2.2651489723       18.7061000195
  H        12.5841635682        0.9193428691       22.2325621311
  H        13.3815727724        1.3854340587       20.6820460399
  C        13.9722803117        2.5645528847       22.3308405723
  N        10.1799326103        8.5394073708       18.2695555661
  C        10.6846826483        8.2145189137       15.9267394091
  C        10.6645163361        6.0955278903       14.8204943385
  H        10.4849817768        4.3970469931       16.0353286636
  H         2.9780865273        6.3239420152       31.4935979258
  H         1.9165351399        5.0154390054       31.1729026547
  H         3.2259130897        4.9016491880       30.2604917729
  S         4.6117237994        2.1188386340       34.5910314566
  C         4.9542242580       -0.5162146490       35.3154247043
  H         4.1402471448        3.2075117703       19.1634279797
  H         4.8267417228        2.6247752298       17.7094953349
  C         3.2505091287        1.3290827824       18.6300327102
  H        13.5338889713        2.9506720587       23.2888679306
  H        14.2903008996        3.3752110698       21.7138843402
  C        15.2184579449        1.7561614943       22.7294854587
  S        10.1870831077        9.9774927316       17.5653667310
  N        10.6349166313        9.6095189579       16.0583665582
  C        10.7668549330        7.5694094697       14.6977513897
  H        10.6035888672        5.5429447385       13.9072489406
  C         4.4949804417        1.5280767043       36.2516540796
  N         4.6176064957        0.1873362338       36.4272460386
  O         5.2504170962       -1.7241462184       35.1927704079
  H         2.3888929595        1.7534573965       18.2252598675
  H         3.0803639055        1.1676529501       19.7000163842
  C         3.4231500127        0.0018835372       17.9055629554
  H        14.7912376500        1.0637090313       23.4836293567
  H        15.5408164321        1.2362478432       21.8276738186
  C        16.3320938009        2.6679672656       23.2871963944
  C        11.0110446803        8.2770596894       13.4917646842
  S         4.0555052610        2.6223744595       37.5599984377
  C         4.6951970393       -0.4808246767       37.7092199815
  H         3.5716686575        0.2271361247       16.8636524763
  H         4.3679964396       -0.4982762483       18.0914745054
  C         2.1985475015       -0.9473678205       18.0468260257
  H        16.1496943045        3.0279635188       24.2688543323
  H        16.4505907308        3.6197651605       22.7267149138
  C        17.7151644329        1.9892531108       23.3357358328
  H        10.6449933736        9.2769523301       13.5216937637
  C        11.6013224510        7.9433814886       12.3392978403
  H         4.2265581777        0.0589647907       38.5133635865
  H         4.3422040198       -1.4226236148       37.4951055908
  C         6.1275280671       -0.4758355845       38.1188157595
  H         1.3051979583       -0.4390542734       17.7610031293
  H         2.0007353390       -1.3892274231       19.0097850005
  C         2.3018753417       -2.2144569504       17.1619661138
  H        18.4923944654        2.3946019703       24.0254682994
  H        17.5299988934        1.0049459304       23.7186435119
  C        18.3856576736        1.9426639511       21.9533481374
  S        12.3805061346        6.4286669796       11.9762177792
  C        11.7890916471        8.9870080754       11.3783432379
  H         6.4333450361       -1.5106943089       38.3646633153
  H         6.9200213675       -0.1069297030       37.4424860136
  H         6.2139285621        0.0700757108       39.0276879059
  H         1.6660623778       -2.9838307843       17.4614253462
  H         3.2977439968       -2.5647068080       17.0839573194
  H         1.9523178107       -1.9629708909       16.1845576602
  H        19.4064258005        1.6420936021       21.8929842254
  H        18.2882874785        2.9794919731       21.5955713395
  H        17.7452378616        1.3525092127       21.2871536260
  C        12.9092921926        7.2341482887       10.4878392287
  N        12.6295889031        8.5607855465       10.4380677757
  O        11.3247862647       10.1507883535       11.3629101420
  S        14.2633418538        6.7262583013        9.3764150321
  C        12.8318225772        9.4438341037        9.3065259579
  H        12.8289862766       10.5307038389        9.6296720693
  H        13.8635829688        9.3891798915        8.9204443438
  C        11.9204573638        9.0477524863        8.2094881574
  H        11.0011486490        8.8134261827        8.6920014525
  H        11.8391926949        9.7635403083        7.4491087827
  H        12.3204376725        8.2362826256        7.6846185192
  H        22.4969960953       11.0849509817        3.4152121056
  C        22.7797177588        9.9832824466        3.2901878892
  H        21.9352921796        9.4332846593        3.0541940216
  C        23.4314970102        9.5769717185        4.5766026476
  C        23.7544051541        9.8004265846        2.1584214298
  C        22.5768494542        9.7763539576        5.8279840309
  H        23.7700153840        8.5303622148        4.6113881623
  H        24.3293739665       10.2530855136        4.6560042603
  H        23.3533461887        9.6483010378        1.1589541308
  H        24.2472889988        8.8146832255        2.3775215660
  H        24.5422418563       10.5545794492        2.0443566529
  C        21.4712666254        8.6559830234        5.8717788674
  H        23.2759566638        9.7932140622        6.6969313634
  H        22.2903490900       10.8257215124        5.6835302816
  C        20.6275420282        8.8887354273        7.0686029300
  H        22.1143149293        7.7488465270        5.8747477614
  H        20.8062437730        8.6257265815        5.0504805437
  C        19.2804103308        9.3083864887        6.5532058159
  H        21.2261496356        9.5222734642        7.7263316571
  H        20.4856780422        7.9290058847        7.5348181353
  C        18.4107128514        9.8159606241        7.6917453729
  H        19.5098929969       10.3007713335        6.0492549878
  H        18.8247894130        8.6490474205        5.8747757920
  C        17.2225818189       10.7011613925        7.3174764972
  H        19.1172784712       10.3028504651        8.3402093176
  H        17.9587292477        9.0121082685        8.2185940982
  C        17.5905658820       12.0460832978        6.5629526097
  C        16.7443134393       11.4494713298        8.4983495007
  C        16.0999275485        9.9455862359        6.5378630359
  C        17.4075111553       13.1531884842        7.3960808709
  C        18.0251334495       12.3370129492        5.3228707548
  C        16.7968321299       12.7713870768        8.6176489839
  C        16.2256765377       10.7619081838        9.6433500437
  H        16.5509164412        9.5993141664        5.6388631346
  H        15.9644154905        9.0385077583        7.0369581092
  C        14.8299746068       10.7793081431        6.3139379879
  S        17.8889526477       14.6139682584        6.5406992896
  C        18.1970603734       13.6648710424        5.0984051334
  H        18.1487894124       11.5113848889        4.5682006743
  C        16.4374466676       13.4341347786        9.7753032509
  H        15.9421454006        9.7293814643        9.6541380709
  C        15.8386955929       11.4018931726       10.7665557981
  H        15.0629903962       11.9136346523        6.2056214684
  H        14.2796876669       10.7139407013        7.2568137073
  C        13.7433907224       10.2818241401        5.2958165125
  C        18.5503495289       14.3884746611        3.7696420649
  C        15.9220302902       12.7341050923       10.8968471960
  H        16.5760046109       14.4792825221        9.9020610709
  C        15.3148533382       11.0041499904       12.0162925559
  H        12.8325001340       10.8192499671        5.4821610755
  H        13.4016966208        9.2288056267        5.4759665228
  C        14.1361889732       10.6587861050        3.8124819233
  C        18.4325962422       15.7158818098        3.4463019598
  C        19.0011781492       13.5489708331        2.6592025723
  C        15.4220154281       13.4354316344       12.1541194035
  C        15.0848835713       12.0912415777       12.9002043143
  S        15.0015874843        9.4829948707       12.7075669771
  H        15.1611127694       10.9453186531        3.7251437938
  H        13.5351492965       11.4651099137        3.3508695402
  C        13.9325533627        9.4957142627        2.8557600010
  N        18.1102481120       16.7272970495        4.3425100160
  C        18.6896722673       16.3173973508        2.2140597062
  C        19.3334877903       14.0627680311        1.4156688420
  H        19.1775968284       12.4632125693        2.8171402460
  C        14.1361338019       14.2337313841       11.9001648750
  C        16.4844168904       14.1722464806       12.9232078276
  C        14.6026956942       11.6099711395       14.1074829917
  C        14.5714907751       10.2457830819       14.1729287526
  H        14.7165353529        8.7765994017        3.0646608824
  H        12.9258164245        9.0415010989        2.9332101697
  C        14.1306741721        9.9606492879        1.4392326621
  S        18.1051904754       18.1929007402        3.5966693949
  N        18.5842690894       17.6960321700        2.1595579767
  C        19.1505552344       15.5209214145        1.1407660309
  H        19.7990557348       13.4609850691        0.7280308184
  H        14.2379550239       14.9773357392       11.1102335656
  H        13.8989598689       14.6939168698       12.8248253679
  C        12.8952258335       13.4149673344       11.5285828858
  H        16.6152882005       15.1425767192       12.4507044393
  H        16.1023992305       14.3475938194       13.8745322877
  C        17.8652190025       13.4262638188       12.9875109135
  H        14.3107854455       12.3263473681       14.8702749423
  C        14.3098326412        9.5351265064       15.4437610091
  H        14.8421450339        9.2634741192        0.9534112500
  H        14.5853801893       10.9839960817        1.4217103109
  C        12.9249250127        9.9402709890        0.5890109853
  C        19.5180734172       16.0760032945       -0.1143819871
  H        13.1338783168       12.8251601494       10.6740260499
  H        12.7648066921       12.7296198601       12.3771429736
  C        11.6755942835       14.2915561791       11.1789288974
  H        18.5436686263       13.7983695770       12.2194834222
  H        17.6703167319       12.3756769501       12.6739653333
  C        18.4993916364       13.4320019981       14.3234032353
  C        14.2502466164        8.1270325165       15.6246934037
  C        14.1344948403       10.2644098891       16.7236790335
  H        12.3376763037        9.0266468489        0.8013422834
  H        12.3052089666       10.7944472062        0.7881568730
  C        13.1216732490       10.1380446660       -0.9459367091
  H        19.4903168529       17.1327631551       -0.0923274889
  C        19.6965279498       15.6258385394       -1.4035671765
  H        12.0036380705       15.0575126036       10.4867135170
  H        11.3193264094       14.6770561426       12.0764704499
  C        10.6310849006       13.4420851967       10.3979590563
  H        18.5888603176       14.4939646422       14.5939053489
  H        17.9603564316       13.0076537806       15.1266480625
  C        19.8458796953       12.7099508654       14.3027988964
  N        14.2508679789        7.2126663551       14.6156788949
  C        13.8942225217        7.5083318958       16.8381148801
  C        13.7575371209        9.6893261985       17.8819922223
  H        14.2950799017       11.2772441002       16.8649380810
  H        13.3461043439       11.2098878479       -1.1283467389
  H        12.1173592173        9.9489660273       -1.3427674590
  H        13.9246916044        9.5168411883       -1.4340490039
  S        19.8266937844       13.9878626291       -1.9364867298
  C        19.7877336679       16.6194397062       -2.5106457212
  H        11.0096830414       13.4242299263        9.3732968731
  H        10.5693617681       12.4612997809       10.8359631530
  C         9.2259299546       14.0005723051       10.3467161212
  H        20.2106873820       12.7646348497       13.3183416320
  H        19.6361982358       11.6942666518       14.5427633731
  C        20.8751576873       13.3483871384       15.2706543016
  S        14.1936850424        5.6684507326       15.1952435835
  N        13.9525675956        6.1125329728       16.7814160439
  C        13.5983245874        8.1871514074       18.0135995453
  H        13.6106844425       10.3161849549       18.6887067699
  C        20.0491645004       14.6526279291       -3.4879670551
  N        20.0442899280       15.9962415878       -3.6613260718
  O        19.6554621176       17.8354974878       -2.3217415562
  H         8.8095360376       13.9023515019       11.2810458921
  H         9.2564083963       15.0098600492       10.0445941864
  C         8.2628610033       13.2401539089        9.4405114276
  H        20.4043554553       13.5807457129       16.2214967164
  H        21.6721582463       12.6096368386       15.5297902473
  C        21.7298419115       14.4714382028       14.6530738984
  C        13.2010200778        7.4413089617       19.1626039268
  S        20.3265751852       13.6467368380       -4.8752583684
  C        20.0234763332       16.7150310117       -4.8938959597
  H         8.6796793277       13.0117133249        8.4598904286
  H         8.1941803282       12.2978766484        9.8989987106
  C         6.9206624764       13.9714439941        9.2235537462
  H        21.2983751395       14.6638655673       13.6203257959
  H        22.7644592037       14.1736398885       14.6360405635
  C        21.6909250168       15.7798356054       15.3539152898
  H        13.1360878853        6.3990667581       19.0977054881
  C        12.7704251399        7.8342220701       20.3916895445
  H        20.4671224598       16.1700381741       -5.7730530988
  H        20.6215249000       17.5943931679       -4.8454921711
  C        18.5637028221       17.1812831199       -5.2718095163
  H         6.4718340391       13.6429947565        8.2702538446
  H         7.1137173992       15.0142984908        9.0454410295
  C         5.9928990924       13.7228117855       10.4314815409
  H        20.7724942926       16.3421290582       15.3357833915
  H        21.9467895238       15.4863809317       16.3180949128
  C        22.7408759852       16.7648076122       14.6723708131
  S        12.4802061451        9.3983428078       20.7606933656
  C        12.3941532159        6.8121871621       21.3627428676
  H        18.0755963835       16.3850983158       -5.8120608854
  H        18.6494785481       18.1052241440       -5.8321211201
  H        17.8763310308       17.3161295218       -4.4112419167
  H         5.9012751654       12.7192604767       10.6998220557
  H         6.4647771255       14.2767066936       11.2012690278
  H         5.0030887522       14.0390831054       10.2697408874
  H        22.5625845382       17.7339524620       15.1621729435
  H        23.7823648708       16.5688655643       14.8504432432
  H        22.6179848029       16.8987916569       13.6498244599
  C        11.7655251293        8.7847424890       22.2767700492
  N        11.8112459061        7.3993235353       22.4433677218
  O        12.6022070230        5.6277916829       21.2420426796
  S        11.2892316095        9.6765917401       23.6800766608
  C        11.6577390394        6.6861001188       23.7575431422
  H        11.3792319177        5.6802474792       23.4417481527
  H        10.7790138403        7.0065147408       24.3464219117
  C        12.9568769043        6.8800523373       24.6809281844
  H        12.9587414054        6.4989287746       25.7020022664
  H        13.1764538975        7.9972142914       24.7361571306
  H        13.7537019633        6.3933546632       24.1748431919
