352
 i =    28700, time =    28700.000, E =        24.5446162179
  H        11.9943614630        6.5375680093       32.4982451061
  C        11.6530239728        5.4969539137       32.4121768076
  H        12.5709864870        5.0063345344       31.9811870774
  C        10.4586067895        5.3115670057       31.4885592251
  C        11.3547810197        5.0303796965       33.8159756922
  C        10.7012278820        5.8841425542       30.1032596804
  H        10.0228467206        4.2749232019       31.4150665896
  H         9.5975367420        5.9613907148       31.8203302418
  H        11.9430743642        4.1546777983       34.0710515809
  H        11.6718115988        5.6472194645       34.5447208639
  H        10.3314576152        4.7780353118       34.0695891524
  C        10.3152967146        4.9759230194       28.9788119533
  H        11.7317984901        6.1926633976       30.1683708870
  H        10.1700459937        6.8727934512       30.1152072311
  C        10.8136424364        5.3441408407       27.6139273112
  H        10.6373921453        3.9523533256       29.2515454229
  H         9.2402854920        4.9307483205       28.9243991894
  C         9.9151853913        4.9022480929       26.4693496743
  H        11.8006127861        4.9202146118       27.4305210957
  H        10.8708734136        6.4431350156       27.5664466936
  C         8.6474483558        5.6802956264       26.3019481580
  H        10.4236927357        4.7917105760       25.5067008769
  H         9.6379725713        3.8655912807       26.7076860163
  C         7.5111460315        5.0014199713       25.5029427717
  H         8.2844819562        5.7297551723       27.2975579282
  H         8.9034802230        6.6618189176       25.8218043943
  C         7.1545924519        3.6253865426       26.0913657891
  C         7.8739957413        4.4058269962       24.1457554648
  C         6.1609933288        5.8129537817       25.3106798357
  C         7.1935145719        2.6009285251       25.1956228766
  C         6.6593640442        3.1883500296       27.3126913684
  C         7.6271171047        3.0730743883       23.9895490254
  C         8.2463338768        5.1006067597       23.0467728958
  H         6.3913685434        6.3603494330       24.4060007998
  H         5.9394252263        6.5206579161       26.0828533382
  C         4.8871544402        4.9359744777       25.1519401795
  S         6.7985417864        1.0660383500       25.9314473518
  C         6.4232961760        1.8671546584       27.3926963443
  H         6.6538561388        3.8690427535       28.1057081778
  C         7.8546352114        2.5373581136       22.7381586606
  H         8.5166055076        6.1112142873       23.1202360038
  C         8.4240170579        4.5655267625       21.7638801488
  H         4.9497642762        4.3838541394       24.2898676860
  H         4.7966327629        4.3196798488       26.0414432214
  C         3.6231119805        5.8542126790       25.1696874962
  C         5.8839649448        1.1772815867       28.6116502841
  C         8.3218659863        3.2158453445       21.5760937681
  H         7.7199283257        1.4604648380       22.6044289108
  C         8.8134602728        5.0233002257       20.5248098813
  H         2.7989961829        5.4789948353       24.4257614644
  H         3.9018892238        6.8228801510       24.6986618865
  C         2.9977295224        5.9628256059       26.6213422069
  C         5.8358054370       -0.1749049127       28.8377650938
  C         5.6342606635        2.0842179149       29.8019439852
  C         8.7979762229        2.5795336677       20.3231510518
  C         8.9913253939        3.9879330411       19.6495611629
  S         9.2054917496        6.5687196633       19.9089079066
  H         2.3227335369        6.7695474578       26.7215077106
  H         3.7908934060        6.1676443012       27.3750624644
  C         2.1960412412        4.7176063384       26.9762317068
  N         6.1658042464       -1.1821862242       27.8740997979
  C         5.4957939326       -0.7721857546       30.0442670687
  C         5.3026926343        1.5040514727       31.0739162274
  H         5.7345506279        3.1532993461       29.7989051591
  C         7.7162918317        1.7989905006       19.4434095518
  C        10.1314728042        1.8478632991       20.4109796035
  C         9.3316161001        4.4111126722       18.3862781757
  C         9.5111214125        5.7823394070       18.3800269317
  H         1.5742064221        4.4299932375       26.0939722542
  H         2.7992386118        3.8816297862       27.0623867319
  C         1.3876798578        4.9188612094       28.2521108072
  S         6.0646639429       -2.6446190319       28.5209307692
  N         5.4944214418       -2.1845496282       29.9572618823
  C         5.2662302235        0.0022513486       31.2086938982
  H         5.1413902705        2.1977218216       31.8686113067
  H         7.4023325859        0.9898357919       20.0942698532
  H         8.1901391100        1.2871323657       18.6935658039
  C         6.5822784081        2.5684754465       18.8196366721
  H        10.3604833137        1.4694471086       19.4187930469
  H         9.9429332430        0.9519829545       21.1206322542
  C        11.3735713033        2.6970820565       20.8252456450
  H         9.3623540447        3.6990513723       17.5568371550
  C         9.8984961523        6.5598454048       17.1069411278
  H         0.7513287237        4.0563180717       28.5680651252
  H         0.7156461492        5.7820372819       28.0692619259
  C         2.3394738922        5.1761497119       29.5159286451
  C         4.9595721923       -0.6626884776       32.4702926241
  H         6.9070677346        3.3948940403       18.1078974930
  H         6.1542196559        3.1058544931       19.6690355251
  C         5.4367220941        1.6932830988       18.2473029245
  H        11.0957637885        3.3239276340       21.6836031808
  H        11.7232878170        3.3675062713       20.0669103837
  C        12.6026574945        1.7414644995       21.0850302037
  C         9.9850512352        7.9711813423       16.8641029638
  C        10.1973003652        5.7708729627       15.8535211694
  H         3.1303369175        4.4869513568       29.4903427607
  H         2.8583006271        6.1583300545       29.4156526492
  C         1.6561541833        5.1941971822       30.8939790923
  H         4.8025550130       -1.7282054794       32.3502622984
  C         4.7129230086       -0.2052635349       33.7653287469
  H         5.1441432134        0.9090631278       18.9254851496
  H         5.8051523252        1.1946193125       17.3532423128
  C         4.2008721261        2.5535563907       17.9010671488
  H        12.7600089529        1.3366578818       22.1229259986
  H        12.4545938972        0.8228078906       20.5882602873
  C        13.9981047576        2.3340176935       20.6307431402
  N         9.7610978897        8.8979696843       17.9234252785
  C        10.3703701341        8.5581472283       15.6900847613
  C        10.6093163017        6.3351892980       14.6786364503
  H        10.0058095259        4.7001991633       15.8439862902
  H         2.4633081882        5.3914082935       31.6790052878
  H         1.0300618108        6.0287185094       31.1359645876
  H         0.9376184245        4.4062211474       31.0643971078
  S         4.4506510781        1.4298444896       34.2433807197
  C         4.5765834936       -1.2132517083       34.8472303290
  H         4.0711664820        3.4711406442       18.4707677403
  H         4.3241142220        2.9817949821       16.8625293224
  C         2.8848916025        1.8008127982       17.9566911850
  H        13.9300243408        3.2523745609       19.9372298873
  H        14.4740569139        1.6151709099       19.8972740590
  C        14.9479171898        2.7384083351       21.8242940459
  S         9.8988303626       10.3676279008       17.2920101343
  N        10.2868267425        9.9523706887       15.7636615255
  C        10.7808223736        7.8148630434       14.5668300535
  H        10.7572377570        5.6758938366       13.8180730598
  C         4.1530812722        0.6718355762       35.8966962178
  N         4.2334938093       -0.6764400463       35.9814274732
  O         4.6957389809       -2.4074254170       34.6223915166
  H         1.9579577530        2.3929348226       18.0305778170
  H         2.9140721705        1.2438019892       18.9428710734
  C         2.8738907944        0.6874800742       16.9403045457
  H        15.7984035263        3.4040780700       21.5251941978
  H        14.3027597512        3.3002975841       22.4794458659
  C        15.6275136765        1.5214456996       22.4112646133
  C        11.0158182576        8.5690904330       13.3922813824
  S         3.6239777670        1.4675259111       37.3632450041
  C         4.1729050542       -1.4815159863       37.2138408007
  H         2.0325521270        0.6552269134       16.3178255161
  H         3.7617592894        0.8078059547       16.3118987777
  C         2.9525344535       -0.7218620253       17.6878510725
  H        16.0023299223        0.8533355164       21.6439080796
  H        14.8668349932        1.0176079746       22.9971295676
  C        16.7297400316        1.9433130655       23.3505290579
  H        10.9201797710        9.6861412277       13.4694459411
  C        11.5138934530        8.2669705907       12.1247551576
  H         3.5353248619       -1.0308739372       37.9788028393
  H         3.6757795810       -2.3407607354       36.8910100517
  C         5.5766239099       -1.6875612124       37.7325720310
  H         3.6949118530       -0.8580723898       18.4552372748
  H         3.2571690111       -1.4335846600       16.8404574196
  C         1.5437796556       -1.0953728637       18.2522428130
  H        16.4792988129        2.8811364078       23.8104170307
  H        16.7992864208        1.1512211965       24.0640751151
  C        17.9823672349        2.1948925688       22.5450285903
  S        12.0425743688        6.7116814990       11.6507244946
  C        11.4513837045        9.3521170431       11.1730476484
  H         5.6567938808       -1.9949413130       38.7381839592
  H         6.3333848837       -2.1330638042       37.0507463261
  H         5.9467810385       -0.6587664812       37.8907615871
  H         1.5752243822       -2.1321259503       18.6888735674
  H         0.9241700473       -1.0928361953       17.3856860896
  H         1.1014917168       -0.4738443201       19.0578548183
  H        17.7342818124        2.9678939406       21.7970766710
  H        18.5025230127        1.3482061131       22.0908959052
  H        18.6886403250        2.7078429352       23.2243213095
  C        12.4133483786        7.5867887237       10.1188239636
  N        12.0419807272        8.9052246294       10.0614989008
  O        10.8655015951       10.4688895156       11.3961374994
  S        13.1719126602        6.8227243534        8.6724213150
  C        12.1987932153        9.8023774731        8.9696003750
  H        12.5053635817       10.7684217194        9.4071076601
  H        12.9118674807        9.4585019273        8.2422880744
  C        10.8538407407       10.0613302673        8.2900829896
  H        10.8490347078        9.8373273449        7.2427976238
  H        10.0333244196        9.4933907560        8.8096314693
  H        10.4461213771       11.0375227705        8.4175067912
  H        21.2203360639       11.1810706887        3.0295045311
  C        22.0371770034       10.5374837076        3.3459699500
  H        21.6529385064        9.5259633458        3.5053101050
  C        22.8807596838       10.9620792064        4.5180162385
  C        22.7455784931       10.5060409775        2.0458578498
  C        21.9952164686       11.1580294489        5.7823310983
  H        23.5137357478       10.1266745615        4.6839599672
  H        23.5276723505       11.8262445654        4.2802563539
  H        23.3302624635       11.3682269564        1.8830538643
  H        21.9828151033       10.4322373031        1.2540008083
  H        23.3111209471        9.6267404917        2.0325880698
  C        21.3505623606        9.8137597698        6.2360813859
  H        22.7086274584       11.4368365053        6.5607299607
  H        21.2384140504       11.8991085576        5.6138663043
  C        20.5981757138        9.8109693097        7.6076875167
  H        22.0699924847        8.9502532534        6.1439114519
  H        20.6341565995        9.4869940290        5.5315036353
  C        19.3351108986       10.6262306668        7.5886572520
  H        21.2920547334       10.1729054286        8.3864315982
  H        20.3262816220        8.8077940109        7.9381905276
  C        18.0983963318        9.8690806207        7.0659036063
  H        19.0883884449       10.8999776696        8.6177888072
  H        19.6116738792       11.5871907178        7.0836622320
  C        16.8688963687       10.8824526820        6.8825780128
  H        17.8167225035        9.1446328492        7.8561061637
  H        18.4556675475        9.3138131620        6.1310089679
  C        17.2480481969       12.2304426778        6.2520343286
  C        16.4005446194       11.6012665612        8.1121274238
  C        15.7339432579       10.2614166261        6.0354326513
  C        17.0238434583       13.3336401954        7.0418375761
  C        17.8635427689       12.6810232090        5.0507321504
  C        16.4616071096       12.9373434227        8.2388185315
  C        15.7608507932       10.9017806859        9.1746129449
  H        16.2321187489        9.8508513121        5.1796734302
  H        15.3467019463        9.3836026857        6.6125744507
  C        14.5562180362       11.2582061018        5.8307353509
  S        17.4524760274       14.8646007034        6.3319904069
  C        17.9356281502       14.0558408582        4.9047550830
  H        18.0220340715       12.0551559674        4.2386191498
  C        15.9504176559       13.5688734892        9.3569141056
  H        15.6883788723        9.8259075338        9.0818416690
  C        15.4137115728       11.5357505298       10.3240554307
  H        14.9902699306       12.1078902737        5.2495062347
  H        14.1776612576       11.6242765343        6.8497210291
  C        13.4623615825       10.6483718128        4.8754828365
  C        18.2434220016       14.7831542696        3.6441358264
  C        15.4329647718       12.9042161678       10.4772498508
  H        16.1216992501       14.6613432753        9.5151162094
  C        14.9648400743       11.1094484866       11.5707855827
  H        12.5509322296       11.2157936906        5.0171104808
  H        13.0864810752        9.6683410305        5.3145251324
  C        13.8642775042       10.5858887997        3.4358054371
  C        18.1618907106       16.1482230634        3.3884503484
  C        18.7126792116       13.9754508869        2.5106127241
  C        15.0540372227       13.5283831663       11.7938670175
  C        14.7957080300       12.1782135904       12.4301908605
  S        14.5959875039        9.5793763678       12.3462062633
  H        14.4888483688        9.7101932966        3.3938257695
  H        14.3967283761       11.4771610528        3.1440992324
  C        12.7061450945       10.5008689755        2.4842867890
  N        17.7353988661       17.1105541606        4.3267016798
  C        18.4402420152       16.6645574531        2.1778098809
  C        18.9350035315       14.4280996451        1.2130058427
  H        18.9295524385       12.9156574808        2.7165098087
  C        13.7822582824       14.3677839332       11.6204136569
  C        16.0662602937       14.2467973705       12.6403411514
  C        14.3076827496       11.7309835061       13.7070374416
  C        14.2298862057       10.3718635132       13.8216022511
  H        11.8628005390        9.9020115065        2.7456450458
  H        12.3737749079       11.5464141419        2.3556032453
  C        13.1765349867       10.0628814669        1.0925444881
  S        17.5173218184       18.5500901885        3.5728870504
  N        18.1519409903       18.0528138073        2.1209440014
  C        18.7982994191       15.8953450895        1.0215470184
  H        19.3721892817       13.7671002097        0.4160751590
  H        14.0061478429       15.1242344851       10.8736284383
  H        13.5153556899       14.8178934772       12.5727493642
  C        12.6216175207       13.5923787125       11.1990205995
  H        16.3717925308       15.1910371795       12.1383642431
  H        15.6357338527       14.5085190818       13.6100590509
  C        17.4195638720       13.5621419365       12.7694753845
  H        13.9756247700       12.4207022878       14.4210184769
  C        13.8535244763        9.6277832669       15.1005067621
  H        13.6520808181        9.0791010156        1.1400759625
  H        13.8387729871       10.8426614395        0.7353130508
  C        12.0089592260       10.0167756439        0.0909451730
  C        18.9205383101       16.5780456213       -0.2274676009
  H        12.7082467848       13.1004440046       10.2608533339
  H        12.4010578906       12.9244804988       11.9407175963
  C        11.4145412488       14.4930549869       10.6934572866
  H        17.8522402615       13.4681595417       11.7881376204
  H        17.3791425566       12.5797413258       13.1250830852
  C        18.3547819945       14.3918866666       13.6817266290
  C        13.8023412670        8.2262084396       15.2791595022
  C        13.5826336739       10.4560613511       16.3682293404
  H        11.8769165852        8.9320428474        0.1132579402
  H        11.1687991238       10.5888875862        0.4319121658
  C        12.4828076014       10.3600272848       -1.3440206336
  H        18.7861093029       17.6018022650       -0.1996805749
  C        19.2101913524       16.1482171230       -1.4850830001
  H        11.7843472374       15.1558244461        9.9321013418
  H        11.0278085061       15.0440994446       11.5614197849
  C        10.2301235137       13.6090768750       10.1229103798
  H        18.6707662164       15.1885326480       12.9492020871
  H        17.8219767264       14.9665221524       14.4344244888
  C        19.6857042459       13.7308775243       14.0308809637
  N        14.1870304735        7.3213086560       14.3064432986
  C        13.5168187311        7.5934908564       16.5128782863
  C        13.2222269267        9.8073262321       17.5478089296
  H        13.5979964405       11.5728619594       16.3429918604
  H        13.2816405895        9.7582294258       -1.7157205766
  H        12.8720402412       11.3783007775       -1.3767077657
  H        11.6036784279       10.2544569879       -1.9693067068
  S        19.3717986658       14.4898390562       -2.0079436807
  C        19.3868643813       17.1773549088       -2.5668264581
  H        10.6643334433       13.2495167454        9.1961540283
  H        10.0201053769       12.7705179006       10.7803844230
  C         8.8838433811       14.2753773540        9.9427734055
  H        19.9649311771       12.8892764875       13.2907701348
  H        19.4457443075       13.2990973199       15.0052571843
  C        20.9350364375       14.5790412405       14.1473456829
  S        14.1410614299        5.7671076185       14.9452607697
  N        13.6093449448        6.1970880791       16.4518177245
  C        13.1450707644        8.3309384788       17.6742016574
  H        13.0058644987       10.4321154644       18.4355343495
  C        19.5828510681       15.1806972649       -3.6515089841
  N        19.5884214622       16.5657558156       -3.7582291675
  O        19.3331050542       18.3822702714       -2.3969576617
  H         8.4445242722       14.5719817415       10.9248554451
  H         9.1120604248       15.2446302043        9.5605487777
  C         7.9699561734       13.5099550504        9.0337129457
  H        21.7869851140       13.8931385558       14.4557057311
  H        21.1846755856       14.9147951873       13.0956799377
  C        20.9276043221       15.8595834386       15.0576671020
  C        12.9304994296        7.6360035913       18.9033650072
  S        20.0876841330       14.2934966820       -5.0923177942
  C        19.6561206161       17.4687677462       -4.9120048551
  H         8.4145522408       13.5595069028        8.0337292719
  H         7.7673736300       12.4728520686        9.1816280338
  C         6.5825973083       14.2692803649        8.8172439891
  H        20.8350663624       15.4908663208       16.0095916943
  H        19.9790693981       16.3966545970       14.8937547514
  C        22.2199702465       16.8323271614       14.9847115483
  H        13.4846875440        6.7149145850       18.9574771818
  C        12.3926098950        7.8589629255       20.1894575027
  H        20.4615867082       17.1016457310       -5.6079887018
  H        20.0923130251       18.4419237927       -4.5922519999
  C        18.3108636735       17.6886366905       -5.6229412536
  H         6.1846974034       13.8197407068        7.8497600708
  H         6.8511305595       15.3068272795        8.6260875296
  C         5.6307396146       14.1223868200       10.0242450699
  H        22.3416291090       17.2799168950       15.9472884988
  H        23.0932313116       16.2932145457       14.6074103304
  C        21.9082191478       17.8827730754       13.9254216567
  S        11.6697086501        9.3642208532       20.8322373643
  C        12.3588378760        6.7380826349       21.1580668967
  H        18.4892188394       17.9974645293       -6.6081403056
  H        17.5216291547       18.2354526205       -5.1549763699
  H        17.9506115325       16.6798666873       -5.6574119469
  H         6.0111052731       14.8477742107       10.8044754951
  H         4.6045559616       14.3605285804        9.7911592761
  H         5.5473157192       13.1201584532       10.4674419056
  H        21.6072560222       17.4122230246       12.9434412391
  H        21.1965185190       18.6306179380       14.3374125725
  H        22.8218651855       18.5099044383       13.6941789930
  C        11.3061147546        8.4837774409       22.2571603885
  N        11.7979233219        7.1957497593       22.2589823595
  O        13.0241189876        5.6633318177       21.1008816931
  S        10.8038529883        9.1856698896       23.7876302786
  C        11.6904336244        6.3006995336       23.3660526982
  H        11.4163703407        5.2839304326       23.0251375769
  H        10.8717391941        6.5339636558       24.0750991546
  C        12.9684996206        6.2446072226       24.2124109818
  H        13.5884125065        5.4189780160       24.0345099905
  H        12.7149508548        6.3184881805       25.2917269238
  H        13.5855131502        7.0632480598       23.9870307732
