352
 i =    29700, time =    29700.000, E =        24.7957406265
  H        11.8079354836        7.0108798730       32.3461878885
  C        11.4065310667        5.9643751050       32.3850931611
  H        12.3417574139        5.4201292732       32.3079508141
  C        10.4038493687        5.8462655677       31.2351313093
  C        10.7354823593        5.5515865322       33.7006971394
  C        11.0078341994        6.1271395045       29.8764223476
  H         9.8358124914        4.8994774188       31.2804694392
  H         9.5200758629        6.5031833296       31.3758690150
  H        10.6961403661        4.4706908567       33.8420221914
  H        11.2808556623        5.8937561836       34.5652067660
  H         9.7153821648        5.8780028809       33.9328343973
  C        10.3268801337        5.2024702852       28.8662484156
  H        12.1105223954        6.1168424665       29.8211358469
  H        10.6214940091        7.1192830115       29.5939816111
  C        10.7416518166        5.5921590358       27.4664717628
  H        10.7058749472        4.1824897936       29.0970945276
  H         9.3061764497        5.4152578636       28.9486937488
  C         9.9047352705        4.9371655142       26.3639899728
  H        11.7585513508        5.3326039621       27.1682403542
  H        10.7546738127        6.7078558043       27.5111229322
  C         8.5988157355        5.8497850695       26.1173328538
  H        10.4733332406        4.7237164691       25.4493466386
  H         9.5303325665        3.9620240014       26.7616546487
  C         7.4001527265        5.0921904375       25.3482715210
  H         8.1429674438        6.1597226839       27.0407899204
  H         8.9379434256        6.8287322614       25.7200210873
  C         7.1714319026        3.7540023386       26.0124877331
  C         7.7570374063        4.4224268233       24.0807816508
  C         6.1590528003        5.9961586654       25.2174187053
  C         7.4574744942        2.6432990913       25.2219066468
  C         6.6720446109        3.4249882330       27.2849236050
  C         7.8838855632        3.0640224861       24.0125594409
  C         8.2564215108        5.1942624311       23.0391818397
  H         6.3665903412        6.6455278668       24.3858749327
  H         6.0453179618        6.5732152568       26.1597966501
  C         4.8386754837        5.1522417008       25.1218831694
  S         7.1912779126        1.1602462454       26.0807337952
  C         6.5084792151        2.0801986645       27.4265716583
  H         6.3740761532        4.2136948025       27.9494544650
  C         8.3683588244        2.5364289423       22.8163022002
  H         8.3196369592        6.2616483963       23.1333285466
  C         8.6728678868        4.6700415184       21.8686123643
  H         5.0755145644        4.6314809711       24.2093955888
  H         4.6773701592        4.5488780118       25.9799820044
  C         3.5730247324        5.9241326695       24.8760617054
  C         6.0859261381        1.4304619091       28.7398099254
  C         8.7089903852        3.3248645398       21.6988263214
  H         8.4866877558        1.4747395658       22.8286479139
  C         9.1207806761        5.0739605884       20.6540637200
  H         2.8728025527        5.2998069844       24.2765592816
  H         3.6902547142        6.8359328526       24.1871389788
  C         2.8357563527        6.3162969263       26.1910622805
  C         6.0867150681        0.0694602667       29.0339699060
  C         5.5950390347        2.3330638922       29.8293807545
  C         9.0859338635        2.6700644117       20.4238418731
  C         9.3911734769        4.0195388123       19.7686206367
  S         9.3568583679        6.6926829307       19.9991406056
  H         1.9903575554        6.8999983440       25.9688403909
  H         3.4486476919        6.9981084808       26.8435398592
  C         2.2377577166        5.1654530826       27.0603606170
  N         6.3577813689       -0.9763738824       28.1057766721
  C         5.8357862197       -0.4657306393       30.3002587219
  C         5.2854125061        1.7718413847       31.0663170018
  H         5.5099818416        3.3913374909       29.6872784119
  C         8.0139042501        1.9288365116       19.6479258530
  C        10.3617742468        1.8973923829       20.4984242564
  C         9.7905704005        4.5008020475       18.5219060453
  C         9.7054599696        5.8863656826       18.4936155229
  H         1.4544199574        4.7382095234       26.4688414976
  H         2.9520747001        4.4231562919       27.1728621864
  C         1.6720488398        5.4875422157       28.4475236632
  S         6.2424668623       -2.4726503843       28.8481796822
  N         5.9730555618       -1.8668558382       30.3843400472
  C         5.3755951086        0.3395632797       31.3921152427
  H         4.8651812157        2.4127995521       31.8237308046
  H         7.6532764124        1.1354222473       20.3305295843
  H         8.3793237858        1.4099951163       18.7992010973
  C         6.7624106176        2.7638461744       19.2160230537
  H        10.5790490802        1.2794526998       19.6328987850
  H        10.3376957721        1.1705885026       21.3529487060
  C        11.6635562442        2.6484905939       20.8178023082
  H        10.0823019631        3.8026539815       17.7334717001
  C         9.9479282413        6.6559530608       17.2157939661
  H         0.9172457681        4.7299145274       28.6327994065
  H         1.2938617058        6.5207458053       28.4419062697
  C         2.7778347566        5.5675978225       29.5002756240
  C         5.1397463840       -0.2779956004       32.6486377073
  H         7.1985863457        3.5171655237       18.4974712969
  H         6.3890117256        3.2230679271       20.1048224841
  C         5.7292723028        1.8011582399       18.5632489834
  H        11.5310394001        3.1454353904       21.7235616733
  H        12.0388164042        3.3387891500       20.0813563105
  C        12.8861868602        1.7158894990       20.9774191222
  C         9.9414439980        8.0492120419       17.0278176935
  C        10.2660468695        5.8787610049       16.0067569557
  H         3.2860383387        4.7159743222       29.6029234117
  H         3.4878997926        6.3004265248       29.2172801187
  C         2.1029348255        5.8259413769       30.8916314144
  H         5.1146196201       -1.3495912782       32.6610696404
  C         4.8446616348        0.1761299136       33.9399145483
  H         5.2181080905        1.1549966239       19.2835055667
  H         6.2545068923        1.1312641169       17.8924979509
  C         4.7176109057        2.7519498908       17.9532060862
  H        12.8029244580        1.0385529805       21.8269058732
  H        13.0172946928        1.0119749407       20.1552704901
  C        14.2044265561        2.3823820824       21.0445427150
  N         9.5581265147        8.9114619370       18.0275712520
  C        10.2456493039        8.7024090654       15.8429369199
  C        10.6051285258        6.5322614848       14.7943574097
  H        10.2735673959        4.8228356512       16.0656497390
  H         2.8502684526        5.7069970432       31.7269766831
  H         1.7357407881        6.8368724615       31.0645044912
  H         1.2143266881        5.1908596464       30.8607046920
  S         4.6121581301        1.8200670802       34.4819738704
  C         4.5678258336       -0.8538580870       35.0353775435
  H         4.4785812081        3.5716891949       18.6249987736
  H         5.0332011243        3.1615322436       17.0197297014
  C         3.3349455050        2.1292217168       17.7834505558
  H        14.1156548390        3.1191099001       20.3046583462
  H        15.0681666711        1.6738649790       20.8056482715
  C        14.4874618585        2.9075669916       22.4208846359
  S         9.6635724323       10.4399850594       17.4980944869
  N        10.0535268176       10.0626628984       15.9384125774
  C        10.6779612577        8.0337698763       14.6516246944
  H        10.9204036241        5.9164790670       13.9385743258
  C         4.3350429240        1.1296683991       36.0686078145
  N         4.2011204523       -0.2468830683       36.1624553553
  O         4.5971471721       -2.0715244704       34.8104247884
  H         2.5395467845        2.8796992625       17.3500791693
  H         2.9654041585        2.0049592964       18.7436183959
  C         3.2488018119        0.8111661857       17.0686008890
  H        15.2711999109        3.6205565090       22.4746572794
  H        13.5883123163        3.3213923617       22.9130535325
  C        15.0952671181        1.8682274141       23.3740557102
  C        10.9295223900        8.7451919853       13.5046631064
  S         3.9410034208        2.0697114168       37.4867179562
  C         4.1528969956       -0.9307030077       37.4242338968
  H         2.4775929650        0.8864495025       16.3836468119
  H         4.1423412671        0.6541754532       16.5315907828
  C         3.0967922575       -0.4486587134       17.9073150602
  H        14.9875980718        0.8461143586       22.9529406702
  H        14.4740861228        1.8516592313       24.2835955935
  C        16.5878798941        2.2015201662       23.7510343227
  H        10.8940532548        9.7546141140       13.5787205945
  C        11.3756484965        8.3323889007       12.1937785782
  H         3.6137366560       -0.3975186711       38.1951011136
  H         3.5745241430       -1.8950371583       37.3231971244
  C         5.5724464552       -1.2518042873       38.0089111576
  H         3.8635005461       -0.3832304468       18.6582354530
  H         3.4745336396       -1.3240846536       17.3624335877
  C         1.7375013332       -0.6324121216       18.4767971890
  H        16.5366937295        3.1060608210       24.4241146389
  H        16.9993276728        1.3623092656       24.3706089092
  C        17.4513347411        2.4792895216       22.4610371201
  S        11.6735811669        6.6958866268       11.6438452334
  C        11.5006100969        9.3461431991       11.1144473862
  H         6.3026028747       -1.1749354973       37.2129065411
  H         5.7093349117       -0.4381030370       38.7828956520
  H         5.6592560814       -2.2614699562       38.4462130343
  H         1.8416496888       -1.4046503791       19.2351126677
  H         1.1108764358       -0.7854227154       17.6166047125
  H         1.4622382621        0.2323875897       19.1140862674
  H        17.6773512222        3.5516833033       22.3405947780
  H        16.8478575785        2.1870849287       21.6224004024
  H        18.3887270857        1.8590164181       22.4777113838
  C        12.1379134973        7.3876014375       10.1013624940
  N        12.0508013992        8.7245056822       10.0366301693
  O        11.1429537794       10.5501462751       11.2963577819
  S        13.1911664193        6.5875565013        8.9543876174
  C        12.4592827003        9.5447876338        8.8375881722
  H        12.8097634989       10.4768762046        9.2776382569
  H        13.3031154196        9.2469048336        8.1803283846
  C        11.2440016385        9.9820128997        7.9823050402
  H        11.5827374800       10.6331312258        7.1757105064
  H        10.6757562512        9.1000592071        7.5919336544
  H        10.5626508053       10.5503817532        8.6420199619
  H        21.3539254164       11.6348393867        3.4500200810
  C        21.6032776476       10.6117671045        3.5580278665
  H        20.7243450581        9.9416071048        3.7245494082
  C        22.5677965019       10.5036546720        4.7793324936
  C        22.2196872774       10.0718435211        2.2942313574
  C        21.7064062002       10.7266300299        6.0209379106
  H        23.0228133780        9.5346890890        4.6365857945
  H        23.3691992269       11.2191595655        4.8570356068
  H        21.5074446647        9.8893213367        1.5038012177
  H        22.7839434520        9.1370141344        2.4441330146
  H        22.9276955795       10.7175843059        1.9339224953
  C        21.0024803443        9.4753131360        6.6227534075
  H        22.3002326177       11.2037005302        6.8436092330
  H        20.9359907801       11.4825286430        5.8672351461
  C        20.2501805493        9.7436261399        7.9924789355
  H        21.7740571188        8.6935327228        6.6945913612
  H        20.2595725589        9.1755639526        5.9165322803
  C        18.9730435424       10.6139168036        7.8491439579
  H        21.0173548520       10.2519582803        8.5968197177
  H        20.0551272995        8.7912771964        8.4856938448
  C        17.8434057291        9.8694778057        7.0587112567
  H        18.5683953063       10.9385373253        8.8040898373
  H        19.2082966095       11.4832550593        7.2496830627
  C        16.5738310514       10.7749008006        6.9674153969
  H        17.5223026328        8.9457308592        7.5412272434
  H        18.1699422126        9.3996595832        6.1338173279
  C        17.0010716051       12.0849365249        6.3603106026
  C        16.1228380891       11.3958795271        8.2095639619
  C        15.4213164251       10.0680626704        6.1349429128
  C        16.8425507057       13.1273379662        7.1768651297
  C        17.4471913233       12.5459743692        5.0954868079
  C        16.2173344842       12.7378253679        8.3084926071
  C        15.6734936713       10.6739326627        9.3647589267
  H        15.8571125476       10.0219531586        5.1291163718
  H        15.1935795484        9.0009913242        6.4106693391
  C        14.2182141414       10.9445383917        5.8946299649
  S        17.1432525401       14.7664781864        6.5111994099
  C        17.6184537409       13.9453259956        5.0356899299
  H        17.6610177995       11.8274632116        4.2562136690
  C        15.7579759953       13.3360817324        9.4516036189
  H        15.7503134048        9.6166808905        9.3890470798
  C        15.2961294649       11.2935056137       10.4953084573
  H        14.5785120041       11.8695009345        5.4090213011
  H        13.7644311396       11.0861246106        6.8351160423
  C        13.1828008743       10.3621207210        4.8808514357
  C        18.0174258752       14.6476291992        3.7741982544
  C        15.3771671074       12.6615886651       10.5893729794
  H        15.7830669719       14.4124897939        9.4968397074
  C        14.9490277563       10.9019769847       11.7271696461
  H        12.1752940063       10.6510442947        5.0270087485
  H        13.1503091505        9.2697292610        5.0686494176
  C        13.5408859342       10.5565842297        3.4040933621
  C        17.9999026307       16.0500861468        3.6103147287
  C        18.4827264897       13.8152573975        2.6044395951
  C        15.0762875130       13.4355815016       11.8546033832
  C        14.7164877709       11.9907181361       12.4959223435
  S        14.5367932936        9.3994509912       12.4271162876
  H        14.5531865989       10.3794719012        3.2599259443
  H        13.3493944005       11.5720224499        3.1409627389
  C        12.7710672268        9.5995315578        2.4059404100
  N        17.5441330464       16.9792234388        4.5155860854
  C        18.3085531786       16.6522250045        2.3973744937
  C        18.7505202010       14.4055144046        1.3798641440
  H        18.4342948431       12.7507233319        2.5464314183
  C        13.8587630011       14.3271773415       11.6978048882
  C        16.2512287959       14.1557031250       12.5790087680
  C        14.2091737610       11.6083795915       13.7594623560
  C        14.1336818059       10.2368071306       13.9094123440
  H        13.2078051561        8.5967664343        2.6007718871
  H        11.6392784573        9.6501318973        2.4532773009
  C        13.2337839103        9.9058807917        0.9668614195
  S        17.7275574757       18.5136757419        3.9345607278
  N        18.3633266132       18.0373840443        2.4754869903
  C        18.6564329116       15.9013189218        1.2505107744
  H        19.0490525814       13.7685507360        0.5482197157
  H        14.1086049197       15.1390730194       11.0437865669
  H        13.7869069790       14.8425725330       12.6748754482
  C        12.6384738122       13.5968191779       11.3284297777
  H        16.5043413365       15.0190997795       11.9827943035
  H        15.8703802517       14.5868869322       13.5585318337
  C        17.4878682185       13.3855923644       12.8002311787
  H        14.1020383628       12.3495328874       14.5197443563
  C        13.7735888249        9.4835462950       15.2215559259
  H        13.8958272791        9.0686037563        0.6277695850
  H        13.9115899143       10.7809697917        1.0002138765
  C        12.0988043709       10.0364773954       -0.1593788315
  C        18.8769460613       16.6078988943        0.0087645520
  H        12.9048631616       12.8287288443       10.5605146267
  H        12.3410840907       12.9444069998       12.1461507571
  C        11.4041819734       14.5122175353       10.8293041121
  H        17.8250206249       12.8232067690       11.9166115400
  H        17.3689453088       12.5805641229       13.5432203117
  C        18.5171450291       14.4667781842       13.3083842597
  C        13.7573621074        8.0580325072       15.4278921081
  C        13.6038998346       10.2632475486       16.5193666656
  H        11.5886540894        9.0968952101       -0.2546869937
  H        11.3377953646       10.6874431331        0.1954336964
  C        12.7128543453       10.5602896333       -1.4744812812
  H        18.5712615837       17.6470777449        0.0899203238
  C        19.2520099446       16.1808101688       -1.2353562733
  H        11.7496560287       15.1457682608        9.9739029147
  H        11.0990432493       15.1943958508       11.6184187680
  C        10.1420037804       13.6501909514       10.4933072531
  H        18.6515469769       15.3593531109       12.6111953193
  H        18.0015732234       14.9885113934       14.1298215734
  C        19.8011967070       13.8635683933       13.9202391795
  N        14.1624428905        7.0703592046       14.4831167289
  C        13.4768103657        7.4767091182       16.6945411125
  C        13.4353948080        9.6895763465       17.7791661193
  H        13.6990713690       11.3438851136       16.4709697532
  H        12.1748255124       10.1169888801       -2.2536812981
  H        13.7129064567       10.1867379366       -1.6417266750
  H        12.6441716813       11.6145185762       -1.5097448654
  S        19.5180334655       14.6144587346       -1.7314114860
  C        19.3371338026       17.1436261779       -2.3602606251
  H        10.4484753586       12.7224388216       10.0069146798
  H         9.6885333425       13.3609255376       11.4538604307
  C         9.0790587738       14.3318342931        9.7059479573
  H        20.2215483659       13.0634676946       13.2244088471
  H        19.5084487348       13.3837753512       14.8447804186
  C        20.9495162327       14.8934455280       13.9706559402
  S        14.1450850612        5.6101945948       15.1935980770
  N        13.5788059056        6.1047771472       16.6489739555
  C        13.2355227317        8.1691821270       17.8823088192
  H        13.1980488428       10.3251539210       18.6076882714
  C        19.7142694947       15.1931353186       -3.3009271769
  N        19.6437360616       16.5159176083       -3.4782447233
  O        19.1369315291       18.2976896805       -2.1491312176
  H         8.4378876815       14.7539799059       10.5225857170
  H         9.4627588255       15.1447517846        8.9809592308
  C         8.3109811615       13.2871867748        9.0521971015
  H        21.8466820838       14.4754093651       14.3965757310
  H        21.2106609938       15.0891531971       12.9058160018
  C        20.5970192768       16.2114012720       14.7351558620
  C        12.9675343621        7.5013709072       19.1257161073
  S        20.1669608552       14.1796615172       -4.7160936465
  C        19.6638819350       17.1156096458       -4.7681794995
  H         8.9987412239       12.9868992221        8.3162610999
  H         8.2085451453       12.4290155499        9.6755321136
  C         7.0152207686       13.8385682724        8.6007675882
  H        20.0912052477       15.8040397566       15.5923191058
  H        19.9654580545       16.7986346984       14.1532878132
  C        21.7326514712       17.0302086163       15.1973293603
  H        13.2746004169        6.4870435962       19.0885059766
  C        12.4982622150        7.9635098431       20.3755435658
  H        20.5442606318       16.6936069570       -5.3193450618
  H        19.8081691995       18.1568431393       -4.6351276873
  C        18.3505215889       17.0589936679       -5.5123300039
  H         6.6407538994       13.2516671902        7.7992897628
  H         7.1302384428       14.8667628834        8.3478864818
  C         5.8729602136       13.8636279971        9.6399915080
  H        21.3601149981       17.9992779968       15.5986326403
  H        22.2851763270       16.4632676780       15.9846034759
  C        22.7904688145       17.2687155093       14.1447334457
  S        11.7703522481        9.5600939077       20.7089633460
  C        12.4872047319        7.0049963012       21.4841121117
  H        18.1786536945       18.0236071499       -5.8517272545
  H        17.5892458895       16.9709760863       -4.7609990739
  H        18.2385672271       16.4423717504       -6.3636420963
  H         5.9693306504       14.7839714294       10.2279623622
  H         4.8687958686       13.9338244914        9.3250707147
  H         6.0163218596       12.9880828679       10.2039811756
  H        23.3009641044       18.1992875726       14.3567465701
  H        23.5949579513       16.4924719432       14.1404724708
  H        22.2701577324       17.3051159741       13.1673802794
  C        11.5255927115        8.8641426098       22.3345981709
  N        11.7680712901        7.5225859885       22.4527448630
  O        12.8934220759        5.8448616976       21.3630276878
  S        10.5296190229        9.5268383623       23.5889615767
  C        11.7290524834        6.8647434127       23.7288899038
  H        11.6853686705        5.7885038039       23.5547407012
  H        10.9437294158        7.0855502348       24.4072342617
  C        12.9862762152        7.1959541503       24.5501073293
  H        13.4660606830        8.0436296450       24.2159001434
  H        13.6883509198        6.3775530664       24.4962775670
  H        12.6663339021        7.4432889221       25.5120609257
