352
 i =    50500, time =    50500.000, E =        25.3685734178
  H         9.6300080952        6.9319327264       32.3150626363
  C        10.6638692319        6.6757364493       32.2500917478
  H        11.0851308236        7.6737579454       32.1135038718
  C        10.8843552560        5.7465496287       31.0132898734
  C        10.9752099115        6.1056102524       33.6300240482
  C        10.6530587115        6.4197906789       29.6656141256
  H        11.9434061130        5.4173581681       30.9308159352
  H        10.2609956054        4.8786640198       31.1489318149
  H        10.1620183631        6.2740808251       34.3234630922
  H        11.2509897694        5.0296610697       33.6408041823
  H        11.8577130052        6.6103179044       33.9445142995
  C        10.3168825154        5.3689983728       28.6337497559
  H        11.6224073630        6.8937989230       29.4690763114
  H         9.8711949904        7.2311304791       29.5498164874
  C        10.5405559522        5.7636845321       27.1624925313
  H        10.9128889152        4.5298938429       28.8113641977
  H         9.2678845414        5.1381702175       28.7337119997
  C         9.5079756943        5.0915328064       26.2114193588
  H        11.4695050283        5.6583300479       26.7789710569
  H        10.4944014142        6.8550906756       27.0449485921
  C         8.2277524440        5.9214258271       25.9042040260
  H         9.9746428866        4.9695559396       25.2184205866
  H         9.1743560172        4.1103700899       26.6326628509
  C         7.0010557450        5.2320818954       25.2829044585
  H         7.9642214587        6.4446433333       26.8452184695
  H         8.5970089024        6.7023846148       25.3138547721
  C         6.6377117083        3.8788392472       25.9565410254
  C         7.4554508911        4.5154453773       24.0568488921
  C         5.8322296009        6.2476823173       25.1078293666
  C         7.0899465897        2.7954182016       25.2232374635
  C         6.0388049432        3.4281311781       27.1918363273
  C         7.6335573389        3.1943203995       24.0436871524
  C         7.8969155992        5.2225684346       22.9663744678
  H         6.0743454855        7.0593886086       24.4090673215
  H         5.5988048589        6.7256313079       26.0856675021
  C         4.5739461431        5.4498750333       24.7334739007
  S         6.7740004931        1.2749438629       25.9339429871
  C         6.0402508341        2.0456098027       27.3262631133
  H         5.5920839134        4.1803993879       27.8703084481
  C         8.1912627341        2.6545892731       22.9049672987
  H         7.9349318253        6.2561719169       23.1441011935
  C         8.4758855906        4.7383658492       21.8280917990
  H         4.8631954734        4.9807799600       23.7135324044
  H         4.2529096244        4.6072767526       25.2818181234
  C         3.2204896760        6.1720042162       24.5799361816
  C         5.5734423115        1.3414498052       28.5662920458
  C         8.5608362518        3.3757754678       21.7679805691
  H         8.3122918779        1.5877689896       22.9655182700
  C         8.9196753343        5.0843476410       20.5744177977
  H         2.6129301577        5.4665362656       24.0146543858
  H         3.3413538967        7.1288263269       23.9806655885
  C         2.5458497630        6.3126977346       25.9280684721
  C         5.6917484214       -0.0235669239       28.9285899275
  C         5.0072369594        2.1803777057       29.6732774869
  C         9.0844874214        2.6892556500       20.5776885242
  C         9.2718926577        3.9936736771       19.7905271784
  S         9.0733067007        6.5843427945       19.7349580188
  H         2.0123232238        7.2370503117       25.7532445578
  H         3.2837802343        6.5451831777       26.6655648822
  C         1.7620498095        5.0853606400       26.3647025562
  N         6.1899724578       -0.9978371541       28.0682051769
  C         5.4279603646       -0.5362345652       30.2042809551
  C         4.7000420502        1.6904015005       30.9507563551
  H         4.8787786799        3.2503324488       29.5663298496
  C         8.0728918220        1.7898342919       19.9364018956
  C        10.4118805242        1.9109695372       20.8663611603
  C         9.5733734349        4.4117565047       18.4698564944
  C         9.7263314221        5.7482458794       18.3009784288
  H         1.0157595327        4.9450501609       25.5972185193
  H         2.4926668475        4.3060330207       26.5748411025
  C         1.0271678017        5.4083918391       27.7533207164
  S         6.3719724318       -2.4042847446       28.8027717399
  N         5.8660285869       -1.8850140740       30.2835588703
  C         4.9678166887        0.2679068920       31.2808201873
  H         4.2111810710        2.4077618462       31.6504490892
  H         7.7983152512        0.9775972438       20.6336758755
  H         8.5239996434        1.3717813226       19.0473147904
  C         6.7325203404        2.3251095564       19.3803075098
  H        10.6320385914        1.2924196151       20.0596925097
  H        10.3101836449        1.2167139333       21.6096356751
  C        11.6232406365        2.7539320914       21.1617917174
  H         9.8638208806        3.6950514035       17.7711544395
  C         9.9940993597        6.4595302667       17.0060533383
  H         0.2602219967        4.5996742343       27.9269725019
  H         0.5839748738        6.3983820130       27.5625252817
  C         1.9852015426        5.6222068393       28.9424316901
  C         4.7653275767       -0.3715488619       32.5826329046
  H         6.8718619981        3.2464942502       18.7480066266
  H         6.1594142006        2.6291360810       20.2500570390
  C         5.8546965753        1.3499879053       18.6776285343
  H        11.3499239961        3.3453084910       22.0226771630
  H        11.8867294115        3.3341058207       20.2823204254
  C        12.7649649935        1.8430440470       21.5646472142
  C        10.0263408590        7.8728084090       16.9094075877
  C        10.2713591161        5.6668700323       15.7588503502
  H         2.4762620281        4.6626143036       29.1792525780
  H         2.7805103209        6.4462914561       28.7662198697
  C         1.2798622522        5.8612548849       30.2637981399
  H         4.8793918147       -1.4266670071       32.5715326555
  C         4.5702815595        0.1956773999       33.7841796588
  H         5.4309095655        0.7022707927       19.3943797915
  H         6.4237044263        0.7473911738       18.0672555460
  C         4.7379971231        2.1228401766       17.8967363739
  H        12.6405064954        1.3571517694       22.5641861859
  H        12.8300446594        0.9996194184       20.8779403765
  C        14.0871171614        2.6065420021       21.3895774349
  N         9.7712233053        8.8190673605       17.9050245120
  C        10.4097564190        8.4555396501       15.7001591462
  C        10.6671407317        6.3531280155       14.5873718217
  H        10.2123538343        4.5592805988       15.8025924640
  H         0.8672574696        4.9756006487       30.7497058878
  H         2.0143527746        6.2532906142       30.9402837788
  H         0.5191020197        6.6629571781       30.2726261070
  S         4.1575856169        1.7934219222       34.1390634834
  C         4.5480447196       -0.7166413120       34.9322285956
  H         4.4867104672        3.1022867040       18.2971042891
  H         4.8922149664        2.2161582010       16.8338453986
  C         3.3821768466        1.3346544920       18.0476309810
  H        14.0733420675        3.2487136476       20.5545470311
  H        14.8315127053        1.8512905949       21.2241091014
  C        14.4015647049        3.5020096171       22.5313099202
  S         9.7870869279       10.2828520514       17.2635415150
  N        10.3946539496        9.8887382586       15.8135296146
  C        10.7114043511        7.7733560011       14.4997337511
  H        10.9009889005        5.8216249126       13.6369969669
  C         4.1660737114        1.2803060468       35.8311870995
  N         4.2944186397       -0.0351828903       36.0277833349
  O         4.5287941374       -1.9386395262       34.8227571488
  H         2.6847168083        1.8341303205       17.4126824172
  H         3.0384056837        1.4237814139       19.0865704823
  C         3.4293309481       -0.0613580593       17.5539773815
  H        14.7847461487        4.3637635883       22.1687868198
  H        13.4946473554        3.6126436658       23.0743576037
  C        15.4332483345        2.8644686885       23.4303149293
  C        11.0183654084        8.4725159657       13.3108131272
  S         3.8120934919        2.3916199276       37.2181041229
  C         4.1034715240       -0.6207259328       37.3972944423
  H         3.8557181708       -0.0305336865       16.5243510455
  H         4.0870187432       -0.6828262394       18.1192803928
  C         2.0862381586       -0.8517507532       17.7409035749
  H        15.3203035186        1.8214203904       23.4234545038
  H        15.1491426952        3.1833254357       24.4642299158
  C        16.9284365440        3.1826641614       23.2251062555
  H        10.6859249630        9.4328223377       13.4184467838
  C        11.4657991794        8.2572353824       12.0272666517
  H         3.7273529753        0.0829044295       38.1601393370
  H         3.4348737090       -1.3889207290       37.5485239659
  C         5.5521699735       -0.9277190799       37.8841636706
  H         2.0891355857       -1.7098720306       17.0218498870
  H         1.2967932392       -0.2022077850       17.4024261607
  C         1.6447700481       -1.3680522825       19.1058200328
  H        17.0701379656        4.1820514417       22.8732228025
  H        17.3916508726        3.0100760651       24.1955033567
  C        17.4393402935        2.3571686842       21.9946526180
  S        12.0559004926        6.7952500083       11.3730015201
  C        11.5536225069        9.4755149851       11.1918279341
  H         6.0487670816        0.0205223714       37.9915292918
  H         5.6153650338       -1.4186981448       38.8990447598
  H         6.0289897691       -1.5207413489       37.1018789062
  H         0.9717070068       -2.2707802154       18.8898592449
  H         0.9989630201       -0.7157170545       19.6502012942
  H         2.4964958186       -1.6795805769       19.7273753687
  H        17.3423402825        1.2900197892       22.0950957756
  H        18.4539181125        2.5912540774       21.8537186474
  H        16.9544642202        2.6745860208       21.0858965127
  C        12.5814062338        7.7829580957       10.0257200991
  N        12.1026765610        9.0735820183       10.0542264176
  O        11.3270273581       10.5945160396       11.5874576619
  S        13.3807917082        7.2750110658        8.4972794770
  C        12.3688718584        9.9245678576        8.9536563294
  H        12.4367086988       10.9435025863        9.2165290230
  H        13.4152896282        9.7969556472        8.5141643500
  C        11.2457866979        9.7972487488        7.9118666167
  H        11.3124353502        8.8312174315        7.4355550418
  H        10.2555944942        9.6807244612        8.3020276313
  H        11.3560879585       10.6191187048        7.1354575243
  H        23.5651775022       10.6695463571        3.3247494408
  C        22.7228186908       10.8308226720        4.0044439806
  H        22.8995249462       11.8605453491        4.2953351768
  C        22.7007857621        9.8426136088        5.1512501560
  C        21.4071748974       10.5560367708        3.1686645314
  C        21.6343156599       10.2225358105        6.1770280835
  H        22.3841435215        8.9068162180        4.6945298550
  H        23.6396252694        9.7336740376        5.6767084214
  H        21.5097783694       11.3341571845        2.3960449586
  H        20.4892674673       10.6721943929        3.7636643268
  H        21.4148350600        9.5513486982        2.7855142337
  C        21.0368252367        8.9948940120        6.6876023572
  H        22.1139792827       10.8385033950        6.8621704817
  H        20.8045595436       10.8460183923        5.8094655291
  C        20.2773199693        9.3435853024        7.9236940688
  H        21.7771992670        8.2090221980        6.9483584657
  H        20.2730139785        8.6243327791        5.9492876178
  C        19.1838559116       10.3804118559        7.7690227759
  H        20.9087017780        9.7737372534        8.7046931289
  H        19.8845277107        8.4769973246        8.3944753921
  C        17.9230931374        9.8470467484        7.0588183797
  H        18.8445087575       10.7090143855        8.7502820641
  H        19.4863920632       11.3031460792        7.3439451070
  C        16.7177251375       10.8702482976        6.8174071699
  H        17.5512526712        9.0986301117        7.7437957565
  H        18.1523076188        9.3728055190        6.1287864735
  C        17.3065199967       12.1610383820        6.1378860722
  C        16.3353662476       11.6850704919        8.0449795472
  C        15.4264109224       10.2204686843        6.1716347134
  C        17.1222739652       13.2960862212        6.9515133327
  C        17.8150033604       12.4545236190        4.9137293843
  C        16.5521100903       13.0016886577        8.1746234188
  C        15.9119040677       10.9924364174        9.1752078425
  H        15.6134417329        9.4475839618        5.4695844961
  H        14.9077468592        9.7678580700        7.0027864562
  C        14.4763864914       11.2386423041        5.5333213251
  S        17.5596731647       14.7583153986        6.1322455827
  C        17.9862912828       13.8112371063        4.7705710957
  H        17.9927022483       11.6523361745        4.2112842336
  C        16.2042565648       13.6262521613        9.3546202097
  H        15.8217078490        9.9912889147        9.0655215718
  C        15.6609982319       11.5964978973       10.3531741338
  H        15.0709084128       11.8021658871        4.8148417032
  H        14.1514223663       11.9526715668        6.3170057929
  C        13.2689531898       10.5892872975        4.8480496305
  C        18.3745673466       14.5293115748        3.5002548103
  C        15.7114033553       12.9460665027       10.4966989673
  H        16.3859442564       14.6578287833        9.4418697820
  C        15.2815819429       11.2477923055       11.6471662930
  H        12.3297597605       11.1262747733        4.8960812584
  H        13.1609316901        9.5333672557        5.2200700027
  C        13.4586897736       10.4965519343        3.3263805965
  C        18.3680100531       15.9184966992        3.2512722038
  C        18.7529448958       13.7027450205        2.3399416608
  C        15.2707924915       13.6476574503       11.7197004924
  C        14.9691646668       12.3639413489       12.4369807207
  S        14.8979497689        9.8077476388       12.4048323546
  H        14.3424769406        9.8483325876        3.0916348924
  H        13.7507413664       11.5430021801        2.9775031714
  C        12.2243749914        9.9372994934        2.5949189354
  N        18.0553315820       16.8928988698        4.2094304234
  C        18.5555137949       16.4354509377        2.0173392901
  C        19.0171550172       14.2472026517        1.1059228577
  H        18.9690832362       12.6505520958        2.4964564708
  C        13.9865614823       14.5385430259       11.5344422333
  C        16.4946738571       14.4626571074       12.3843835391
  C        14.3626089708       12.0629787179       13.6472001938
  C        14.3164295307       10.6858778284       13.8433920911
  H        11.8359312594        9.1071013375        3.1766414257
  H        11.4431426277       10.6748566376        2.6175674322
  C        12.4589509527        9.4008823451        1.1894067561
  S        17.9602412054       18.3378482059        3.5130621726
  N        18.3313588586       17.8496462834        1.9818847334
  C        18.8963130297       15.6655728678        0.8811717583
  H        19.4177258113       13.5863213566        0.3287595428
  H        14.2381230520       15.4076914767       10.9272063022
  H        13.7309365720       15.0489160982       12.5007339613
  C        12.8052941567       13.8272463675       10.9706532883
  H        16.7055016502       15.2235246770       11.6110517331
  H        16.1722535645       15.0964072050       13.2457339354
  C        17.7768259573       13.6440302328       12.6996915788
  H        14.2589285458       12.9451574780       14.3146261028
  C        14.0183379434        9.9283704957       15.1378878025
  H        11.4361250768        9.2135651631        0.7933447231
  H        12.8933116096        8.4829582150        1.3829734399
  C        13.4032486251       10.2347106594        0.4551543468
  C        19.0767687836       16.2928967102       -0.3767614660
  H        13.0022598888       13.2779531853       10.1101708134
  H        12.6066928102       13.0725871437       11.7111766815
  C        11.4835641262       14.5902393567       10.8047765482
  H        18.1725973696       13.0781416637       11.8411206093
  H        17.4395743003       12.9779036727       13.5031318615
  C        18.9284230320       14.5768739133       13.2239618951
  C        14.0551745574        8.5146283018       15.2804327490
  C        13.8868420705       10.6637134646       16.4185693550
  H        13.2212567935       11.2980568292        0.7244924539
  H        14.4366653784       10.0076380911        0.7179590482
  C        13.1192087526       10.1438771782       -1.0484084912
  H        18.8105288369       17.3177710948       -0.2724504816
  C        19.4856880856       15.9257356684       -1.6191238726
  H        11.6314931616       15.4296463386       10.1848229115
  H        11.0943363667       15.0899917568       11.6608846075
  C        10.4458060011       13.5830422073       10.2061713630
  H        19.0654385567       15.3586146238       12.5717054405
  H        18.5762562252       15.1819190449       14.0585157193
  C        20.2184951867       13.7930110125       13.5892914319
  N        14.3190939726        7.6571515915       14.1930851748
  C        13.6817656038        7.8422847853       16.4099302295
  C        13.5620775320       10.0139817592       17.6470284541
  H        14.0448077647       11.7129606149       16.4340947890
  H        12.2975660181       10.8065724241       -1.3309705600
  H        12.8903841010        9.1042724459       -1.3963287383
  H        14.0647656706       10.4812826395       -1.4557503216
  S        19.8548894317       14.3304169723       -2.0977700816
  C        19.5799042706       16.9277493784       -2.6361190167
  H        10.8658438944       13.0434009165        9.3508446153
  H        10.1490581413       12.8783822444       11.0309408059
  C         9.2854166819       14.3200910805        9.5822540287
  H        20.4184690296       13.1393419234       12.7323917834
  H        20.0044379869       13.2124251467       14.4912780640
  C        21.4314062220       14.6654003510       13.7020909167
  S        14.1568676254        6.1325587153       14.6604041340
  N        13.6789482230        6.4502976410       16.1649743765
  C        13.3172102873        8.5079504601       17.6469430441
  H        13.5746764181       10.4568231575       18.5566181085
  C        20.1792834950       15.0373621981       -3.7061610167
  N        19.9800050856       16.3518178550       -3.8013690649
  O        19.5419005469       18.1424449853       -2.3074745263
  H         8.9801793916       15.0868469939       10.2269473060
  H         9.5908110421       14.8170229346        8.6381452483
  C         8.2081717917       13.3297221755        9.2699561327
  H        22.2781608091       13.9653311456       13.7008774930
  H        21.5110239156       15.2117810218       12.7527367633
  C        21.6330338186       15.5133169695       14.9377367133
  C        13.1022928882        7.7428944244       18.8332598233
  S        20.7805273688       14.1728303103       -5.1048602559
  C        20.1707662945       17.1270579242       -5.0184798297
  H         8.6005560497       12.5617090994        8.5990766031
  H         7.8465223718       12.7175111817       10.1216683137
  C         7.0223878410       13.9835032022        8.5885521038
  H        22.1263107425       14.9114183239       15.7294023016
  H        20.6700236079       15.8228692893       15.4287627557
  C        22.4783449581       16.7714450686       14.7501332909
  H        13.3017603622        6.6529638359       18.7262468041
  C        12.6491607762        8.1170276153       20.0585428798
  H        20.8965021483       16.7176451788       -5.6743466145
  H        20.4515845952       18.2233809066       -4.8433201680
  C        18.8734318527       17.1798805006       -5.7478617279
  H         6.7329701355       13.2460364628        7.9080563014
  H         7.1900255499       14.8668325393        7.9833819998
  C         5.9373935107       14.2390073866        9.5784915427
  H        23.5196015808       16.4385533092       14.5925899980
  H        22.1297183736       17.3804961727       13.9266430416
  C        22.5139939274       17.6455428568       15.9944523831
  S        12.0994694380        9.6899583100       20.5492748855
  C        12.4212316267        7.0294806706       21.0838279452
  H        19.0234472613       17.7721269654       -6.5733768455
  H        18.1709004081       17.7055440007       -5.1595113877
  H        18.4618423840       16.2794275147       -6.1093394807
  H         6.3460252577       14.8948583383       10.3083525774
  H         4.9951607483       14.6255140470        9.1212609900
  H         5.6990238547       13.2840777317        9.9268138984
  H        23.5133144940       17.9009117458       16.1926395482
  H        21.9398155045       18.5950630900       15.9464953000
  H        22.1258354234       17.1327174323       16.8639372525
  C        11.7394698532        8.8363085488       22.0613734978
  N        11.7798400058        7.5221172221       22.1597361789
  O        12.6956395338        5.8788846408       20.9392446521
  S        11.1893252039        9.6273684777       23.4827676007
  C        11.3819601156        6.6453915444       23.3564445989
  H        11.1719305653        5.6549208888       22.9582933132
  H        10.5689204183        6.9972393901       23.9466801686
  C        12.6075624009        6.4363000163       24.1620646026
  H        12.7995504274        5.4641311888       24.6211799557
  H        12.5257012245        7.0628761512       25.0056009054
  H        13.5478060988        6.8522595888       23.6956634162
