352
 i =    23000, time =    23000.000, E =        24.6810373461
  H        11.8396402657        7.5989098165       32.2028422840
  C        11.5980363631        6.5046139687       31.9318531855
  H        12.5301444267        5.9855612806       31.9599702197
  C        11.0292329572        6.5339362853       30.4886873359
  C        10.7597474052        5.7352799949       33.0215631006
  C        10.7253785020        5.1539555280       29.8798422834
  H        10.1016197739        7.1931932536       30.5531159570
  H        11.7029406617        7.0417068569       29.7461924286
  H        11.0854893037        6.0554254165       33.9999544414
  H         9.7132399191        5.9432853412       32.9604582803
  H        10.9205146753        4.7070599421       32.8249752405
  C         9.7770954691        5.2960198792       28.7071454858
  H        10.2246586134        4.4554974538       30.4964405734
  H        11.7114681405        4.7728367518       29.6646645907
  C        10.4883510197        5.1629056334       27.2957013368
  H         9.0692806282        4.5519112994       28.8279596118
  H         9.2221352508        6.2366599697       28.7538912554
  C         9.6897524362        4.7718745233       26.1017490117
  H        11.2977426925        4.3610690696       27.3695993010
  H        11.2047425863        5.8831823422       27.0801052676
  C         8.4731645068        5.6446613885       25.8230886367
  H        10.3317335134        4.6335753204       25.1677109829
  H         9.4003703243        3.7564152065       26.4006610186
  C         7.2391890155        4.9749937448       25.0919851203
  H         8.0470307572        5.9795300853       26.7269043417
  H         8.8334693806        6.5508809479       25.3692767469
  C         6.7800042168        3.6551147773       25.8083420993
  C         7.6640627569        4.1576067823       23.9198982067
  C         5.9573674174        5.8765218754       24.8424651030
  C         7.0253810464        2.5227090970       25.0768748817
  C         6.3136758451        3.3156317364       27.1228536800
  C         7.6046709586        2.8302501116       23.8409060926
  C         8.2286214287        4.7909218639       22.8725415900
  H         6.2359732132        6.7238646700       24.2533873580
  H         5.7416777524        6.1434441654       25.7810213338
  C         4.6535748059        5.1460791499       24.3161064794
  S         6.7563982459        1.0670227427       25.9016435811
  C         6.2434921555        1.9427927109       27.3097570682
  H         6.0108940791        4.0636571163       27.7767493845
  C         8.0066549480        2.2209048965       22.6761947171
  H         8.3354199309        5.9240427527       22.8550231732
  C         8.6272590245        4.2082411905       21.7080669449
  H         4.9244067330        4.8151360360       23.3230542927
  H         4.4615391318        4.1836886293       24.8613558624
  C         3.4110945153        6.0413870614       24.2836119526
  C         5.8331860112        1.2227153687       28.5403741924
  C         8.6318042231        2.8379859046       21.5626468293
  H         7.9694834209        1.2070992018       22.4981821935
  C         9.0675541628        4.6128755861       20.4614953342
  H         2.6713973336        5.6865114515       23.6107755640
  H         3.6028629998        7.0321811383       24.0166585017
  C         2.7577196774        6.1980221296       25.7275639865
  C         5.9471511800       -0.1446831065       28.8251717482
  C         5.2884838341        2.0412576396       29.6416260225
  C         9.0792888185        2.1233283491       20.3999947029
  C         9.3601397439        3.4794590085       19.6288867610
  S         9.2201192028        6.1242263662       19.7193937808
  H         2.0358217946        6.9762814994       25.6460381810
  H         3.5948000956        6.4612406612       26.3731540477
  C         2.2451282613        4.8286586908       26.2933070483
  N         6.3224852806       -1.0868273097       27.8919489721
  C         5.5756807740       -0.7765086110       30.0097045815
  C         5.0599758232        1.4848563276       30.8893520646
  H         5.0830781832        3.0976183141       29.5573679764
  C         7.9342595509        1.3073966529       19.7504985330
  C        10.3894549157        1.3349546671       20.6084974153
  C         9.6606027064        3.9412020408       18.3306581875
  C         9.7419894692        5.3197109413       18.2597771711
  H         1.7165891736        4.1686340749       25.5440951407
  H         3.0461225717        4.1828616697       26.6420891806
  C         1.2526795213        5.0778356843       27.4164915527
  S         6.0949374942       -2.6203696904       28.4297899425
  N         5.6340645632       -2.1902286288       29.9399080170
  C         5.2523459130        0.0177691036       31.1450990967
  H         4.7369497438        2.1809454449       31.6470531449
  H         7.5844948899        0.5044571570       20.3743934657
  H         8.3372386053        0.7404595912       18.9587693175
  C         6.7061337245        2.0957720693       19.2717654320
  H        10.5687703297        0.7956018873       19.7242274464
  H        10.2178291919        0.5884237857       21.3891131171
  C        11.5950152496        2.2640148606       20.8685014200
  H         9.9321454657        3.2213891059       17.5890589485
  C         9.9745089194        6.0770606815       16.9919097059
  H         0.6845646159        4.1436397394       27.6348686850
  H         0.5136047699        5.7788148842       27.1546929893
  C         1.9607841124        5.4970268166       28.7311458584
  C         5.0168048257       -0.5927755683       32.4373295633
  H         6.9951606280        2.6212762665       18.3678474360
  H         6.4375236167        2.8553668449       20.0578682092
  C         5.5323078932        1.2542026649       18.8845043471
  H        11.3452563123        2.7446987900       21.8094397987
  H        11.7006941979        3.0841860812       20.1654272311
  C        12.9281715350        1.6129668163       20.8773245141
  C        10.0202895476        7.5091339463       16.8871825618
  C        10.0384529096        5.3778798977       15.6854127447
  H         2.9784894411        5.1534550288       28.8078221166
  H         2.1552580123        6.5720255122       28.6163427427
  C         0.9920612286        5.3628208801       29.9764693124
  H         4.9163167159       -1.6371989152       32.4360947471
  C         4.7656188321       -0.0770542962       33.7273865950
  H         5.1628354005        0.5815491553       19.6211464710
  H         5.8722937447        0.5804404401       18.0581323428
  C         4.3674510049        1.9637731917       18.3662975527
  H        13.0642624518        0.9800952846       21.7277654768
  H        13.1866367132        0.9453071817       20.0331608371
  C        14.1715424502        2.4675091396       21.0037431755
  N         9.7845146013        8.4564300014       17.9041876306
  C        10.3286417015        8.0500460225       15.6586728250
  C        10.5032705613        5.9073955083       14.5088898311
  H         9.7850961734        4.3079877820       15.6867842445
  H         0.4042190605        6.2215175396       29.9758013094
  H         0.3517667123        4.4584003473       30.0016805049
  H         1.6247018779        5.3110375288       30.8441659484
  S         4.4732101870        1.5480264254       34.2060461518
  C         4.6054172922       -1.0722471750       34.7795875996
  H         4.3648560665        3.0108081913       18.7412785363
  H         4.3772891656        2.0166963695       17.3045655122
  C         3.0408943877        1.2139098204       18.6143760010
  H        14.3097583451        3.0912697511       20.0443249566
  H        14.9789944511        1.7330832236       20.7910805696
  C        14.3103001163        3.3021076810       22.2792572140
  S         9.8279720317        9.9483138146       17.1986876509
  N        10.2074097121        9.5077291111       15.6855244951
  C        10.7597378890        7.3691677277       14.4904317566
  H        10.6005403151        5.2745560733       13.6212500086
  C         4.0954313223        0.8446490618       35.8151976461
  N         4.2695057606       -0.4845622540       35.9185198871
  O         4.6882099352       -2.2858366067       34.6146782334
  H         2.2412934052        1.9221365098       18.2893725091
  H         2.8961066167        1.1094094558       19.6666129869
  C         2.9721882284       -0.1017853837       17.7867986837
  H        14.8847060016        4.2399837602       22.1032515568
  H        13.3393813472        3.6813458961       22.5876920556
  C        14.8177372459        2.5289269812       23.5049359178
  C        11.1386522392        8.0887234593       13.3174463416
  S         3.4095735437        1.7777247369       37.1432096751
  C         4.2847310071       -1.2163886835       37.1843972280
  H         2.7545560137        0.2229017068       16.7378154933
  H         3.9808023363       -0.6102012256       17.7584053523
  C         2.0241232000       -1.1820421159       18.2203762114
  H        14.5104540069        1.4915643287       23.6308097412
  H        14.4637626756        3.0056373840       24.4338392686
  C        16.2877272794        2.5941008111       23.7024993364
  H        11.0521575393        9.1559153707       13.4317422951
  C        11.5355332262        7.6834129600       12.0712879547
  H         3.6724862858       -0.7423110621       38.0124794206
  H         3.9454481094       -2.1868223663       37.0661543766
  C         5.6649000589       -1.5080752454       37.6161974606
  H         1.0961428702       -0.7551492574       18.4698422727
  H         2.3772471373       -1.6801332966       19.1375497810
  C         1.8437595092       -2.3140565312       17.1802459623
  H        16.6022218025        3.5080829145       24.1122271232
  H        16.4811525226        1.8895376870       24.4921579815
  C        16.9855648201        2.2517209216       22.4229095379
  S        11.8203558237        6.1328762322       11.5483949165
  C        11.7461867034        8.7711348562       11.0734029123
  H         6.3093250838       -0.6856118841       37.8333789968
  H         5.5818173110       -2.0993392364       38.5353976164
  H         6.2072973578       -2.1917284699       36.9019708183
  H         1.4226020747       -1.9726367239       16.2652091528
  H         1.1812169782       -3.0060848570       17.6839556276
  H         2.8054238668       -2.9248522660       17.0079626144
  H        18.0213264311        2.2280109297       22.7413902430
  H        16.8268746722        3.0376228426       21.6478808525
  H        16.5868362646        1.3118774205       22.0760322900
  C        12.2260405081        6.7991126532       10.0197547502
  N        12.1680902137        8.1464764686        9.9692003505
  O        11.5813636951        9.9716528925       11.2648696566
  S        12.7351229428        5.8776582293        8.6231210104
  C        12.5104088916        8.9399701608        8.7471647642
  H        12.7287872950        9.9524255184        9.0733655650
  H        13.4385941764        8.6231053044        8.2936059612
  C        11.3360706352        9.0474083402        7.8107286700
  H        10.4381189836        8.7945705593        8.4321075685
  H        11.2046995879       10.0901732805        7.5207087853
  H        11.4489344579        8.4061546609        7.0125165953
  H        21.1237566029       11.3763786066        3.0669881258
  C        21.7032624962       10.4146654049        3.0577414788
  H        21.0110147263        9.6822924687        3.1932680467
  C        22.6140513493       10.3627493358        4.2795365301
  C        22.5234443033       10.3262323945        1.7912090679
  C        21.8476251981       10.7030122534        5.5683767452
  H        22.9561436958        9.3051093913        4.4388692996
  H        23.5048283353       10.9597467040        4.1425858071
  H        21.9775823440        9.9379410982        1.0049999058
  H        23.4446153385        9.7729409598        1.8729953975
  H        22.7583628564       11.4230123423        1.5098887104
  C        20.8795742460        9.6259629727        6.0202253281
  H        22.6286769592       10.9803476028        6.3038826745
  H        21.2765971921       11.5868714530        5.4074170176
  C        20.4582301225        9.7598937074        7.4292932260
  H        21.3472019966        8.7338724216        5.8565562789
  H        19.9795466453        9.6715394410        5.3643452366
  C        19.0886382160       10.3748195857        7.5928395382
  H        21.1669039279       10.4178373945        7.8623295779
  H        20.4017066501        8.8223280338        7.8995620550
  C        17.9288792911        9.5864044519        7.0532649535
  H        18.8046327887       10.3438062437        8.6243034855
  H        19.0842262453       11.4004109860        7.2689739811
  C        16.6223167113       10.4435634452        6.7539150305
  H        17.7598734957        8.7979815682        7.8820802943
  H        18.1843096036        9.1526059780        6.0989653580
  C        16.9247103481       11.7410743253        6.0121403521
  C        16.2612125901       11.2149672878        7.9626539806
  C        15.3950449842        9.8035096216        6.0752963061
  C        16.7319761448       12.8326634814        6.8256748536
  C        17.4261937879       12.1523693993        4.7710530685
  C        16.3215953856       12.5303705266        8.1114144528
  C        15.9114678204       10.5381144359        9.1280318079
  H        15.7092847580        9.0398832019        5.3742719762
  H        14.7783303055        9.3522743008        6.7618453413
  C        14.4198910631       10.7551334626        5.2704238131
  S        17.1255639822       14.3355392354        6.1297217658
  C        17.5905119967       13.4900386241        4.6975576081
  H        17.5235192307       11.3744771078        3.9404593387
  C        15.9471208594       13.1633078468        9.3019109573
  H        15.9716094319        9.4664600315        9.0405879411
  C        15.5257005280       11.0909827808       10.2830536653
  H        15.0582097211       11.1996317062        4.5166372042
  H        13.9567701466       11.5492513833        5.9174208213
  C        13.3048588776        9.8582429206        4.6751348505
  C        18.1700722309       14.2036167460        3.5463538173
  C        15.4667314774       12.4373289345       10.4302734172
  H        15.9069799082       14.2801228234        9.2631977420
  C        15.0790442272       10.6713656901       11.4773691823
  H        12.4880389522        9.6831450891        5.3535787186
  H        13.7775882078        8.8926094674        4.5474215105
  C        12.7912219493       10.4663956640        3.3972045381
  C        18.0331730237       15.6332882872        3.3142640265
  C        18.6364927314       13.3863887711        2.3415602620
  C        15.0813090675       13.1686484232       11.6369803293
  C        14.8305058312       11.7756284533       12.3107190425
  S        14.8178560384        9.1414748955       12.2958610092
  H        13.2092300596       11.4620090858        3.1951705693
  H        11.7446339014       10.6696718398        3.4649065835
  C        13.0132868511        9.5780484647        2.2254398531
  N        17.5622053517       16.5475558773        4.3549789076
  C        18.3203314577       16.2168446229        2.0820436444
  C        19.1410282241       14.0355793735        1.2115135036
  H        18.7394260909       12.3230355333        2.3052561299
  C        13.8678232242       14.0760121915       11.5683347498
  C        16.2533939881       13.9198976633       12.2417356503
  C        14.4235105204       11.3915653018       13.5694536521
  C        14.3599277909       10.0208831099       13.6562150788
  H        14.0700941328        9.2320998490        1.9553573261
  H        12.4456310359        8.6698456824        2.2525153985
  C        12.7820938492       10.3323794300        0.8975716967
  S        17.5512314773       17.9869927699        3.5744290761
  N        18.0552216171       17.5593412421        2.0605196013
  C        18.8199309714       15.4932645982        1.0008011402
  H        19.7992202820       13.4670894993        0.4982229596
  H        14.1169820095       14.8561797052       10.8997413391
  H        13.7555149052       14.5173958281       12.6087986772
  C        12.5978068275       13.2954594080       11.0834793626
  H        16.5208198116       14.7289296920       11.5720303989
  H        15.8470039123       14.3523860629       13.1286556470
  C        17.4491021476       13.1349954861       12.5697061565
  H        14.2835813848       12.1550532559       14.3324705245
  C        13.9657490896        9.3787319026       14.9686759271
  H        13.3384605235       11.2810109286        0.8675035939
  H        11.7561455568       10.6435878898        0.9026308541
  C        13.0408493571        9.5188897853       -0.4122331154
  C        19.0342630667       16.1533881361       -0.2306633440
  H        12.8276394047       12.7972430994       10.0946064189
  H        12.2371437379       12.5482673274       11.7347137106
  C        11.3167384956       14.1218638735       10.8489618747
  H        17.8993150224       12.6111702867       11.7267710664
  H        17.1869587447       12.4343260144       13.3368371654
  C        18.5669518520       14.0771170326       13.1250888243
  C        13.8442732754        7.9730238002       15.2496503634
  C        13.5961337295       10.2543285371       16.1076731702
  H        13.9900443496        9.0083470425       -0.4309628524
  H        12.3759103259        8.6486572719       -0.2877182669
  C        12.7499700390       10.2782090360       -1.6658125525
  H        18.7356937579       17.1459798714       -0.2305759423
  C        19.3393030735       15.8481167282       -1.5074023177
  H        11.6128229238       14.9072948984       10.2311496548
  H        10.8539264115       14.4480451551       11.7719546922
  C        10.2865538277       13.2919558143       10.1665794712
  H        18.8310202449       14.8452872584       12.4618814316
  H        18.2783339959       14.5184736299       14.0738646160
  C        19.9173070624       13.3867129789       13.5800985812
  N        14.1503890681        6.9814866430       14.3116807535
  C        13.5576612247        7.4860698541       16.4744728464
  C        13.3010558598        9.7329451717       17.3141257577
  H        13.5957170825       11.3440743016       16.0758139621
  H        11.8543057872       10.8485101255       -1.5874517486
  H        12.6215299249        9.5961362031       -2.5171556868
  H        13.5252178706       11.0478632975       -1.8156306016
  S        19.6189214234       14.2022673297       -2.1162613289
  C        19.2528071814       16.8919245802       -2.5934925885
  H        10.7203387404       12.9151491577        9.2272194293
  H         9.9983401808       12.4784872727       10.8684312303
  C         9.1046376379       14.1363208480        9.7379184738
  H        20.2890902809       12.6126090285       12.9238933979
  H        19.7456685435       12.8039154688       14.4044660433
  C        21.0295695038       14.4351297831       13.8896410550
  S        13.9711142973        5.4795258981       15.0020310238
  N        13.5427542112        6.0600824026       16.4760917472
  C        13.1667849162        8.2737843792       17.5955321975
  H        13.1128614295       10.4269603377       18.0985208278
  C        19.5992844645       14.9724593166       -3.7487669547
  N        19.5195114957       16.3416741684       -3.8005188164
  O        19.1272256088       18.0973053971       -2.3526311805
  H         8.8291113621       14.8236485159       10.6024723210
  H         9.3953585955       14.8625517414        8.8945464057
  C         7.9411395775       13.2145640109        9.2651968734
  H        21.8115625907       13.7775364807       14.2914703562
  H        21.3832992814       14.7936352111       12.9030889126
  C        20.5421622953       15.6324602409       14.7884090085
  C        12.7237553749        7.6759530943       18.7685512720
  S        20.3035512190       14.1933905253       -5.1914236334
  C        19.4858064659       17.1573432124       -5.0126314692
  H         8.3261301683       12.5573414238        8.4745722655
  H         7.5331928710       12.6179430485       10.0494878852
  C         6.6798012316       13.9045056606        8.7652190110
  H        20.3264496033       15.3503409144       15.8064311151
  H        19.5449089954       16.1807683549       14.4575416818
  C        21.5725469973       16.7474195745       14.9495474395
  H        12.8396332299        6.6283541679       18.9023629651
  C        12.2461439338        8.1544414775       19.9661514055
  H        20.2161744344       16.7911444592       -5.7071105791
  H        19.7221392680       18.2366120990       -4.7418850347
  C        18.0861288558       17.1508782103       -5.6220415155
  H         6.3288239868       13.3747341413        7.8965225664
  H         6.8644533610       14.9269905626        8.3541283227
  C         5.4318839037       13.9134824352        9.6859917455
  H        22.3189659739       16.3636558728       15.6491380090
  H        22.1608422223       16.8252838088       14.0321676229
  C        21.1028264269       18.1561821292       15.3665283854
  S        11.9501749694        9.8158184439       20.3741239341
  C        11.9803668692        7.1590851470       21.0835557625
  H        18.0434498779       17.8063442608       -6.5420679733
  H        17.4638458909       17.6435505467       -4.8631308755
  H        17.7487654526       16.1011971113       -5.8649566050
  H         4.6992913399       14.5117724825        9.1396097145
  H         5.0136461989       12.9197964515       10.0331238031
  H         5.6347620315       14.5159031854       10.6102696779
  H        21.7201932397       18.9439934856       15.0134733593
  H        20.0550587527       18.3678719068       15.2990219247
  H        21.2262409193       18.0489470202       16.4341652524
  C        11.3047182062        9.2138321404       21.9216833229
  N        11.5932299357        7.9058712398       22.1260502464
  O        12.2598777564        5.9584579983       21.0528623816
  S        10.3908285571       10.1586932489       23.1012249212
  C        11.5720146932        7.1709007733       23.3726839693
  H        11.3750197938        6.1047824280       23.2443198138
  H        10.6929272150        7.4927459021       23.9762245864
  C        12.8939180484        7.3861449233       24.1580217105
  H        13.6248696170        7.8386875880       23.4428796519
  H        13.3356390074        6.5075013309       24.6520591533
  H        12.7229216111        8.0995728055       24.9518632740
