352
 i =    90900, time =    90900.000, E =        25.2342459096
  H        10.2037372149        6.9672627806       30.7642363490
  C        11.0427677354        6.4717043917       31.2438687998
  H        11.7274540629        7.2286824687       31.6737846096
  C        11.8469484396        5.6209041357       30.2640501817
  C        10.4601168995        5.7548484950       32.4352194976
  C        11.1526842933        4.4057256458       29.6886888527
  H        11.9094462879        6.2095158844       29.3834969728
  H        12.9035716375        5.4258279753       30.7007340760
  H        10.0993180832        6.4537783618       33.1737083183
  H         9.6207707189        5.2056407505       32.1145889201
  H        11.2626859711        5.0832881003       32.8125747321
  C        10.0598476569        4.8404425878       28.6821044540
  H        10.6563136232        3.8664384209       30.5146687381
  H        11.8336453378        3.6269086329       29.2117715686
  C        10.6438147110        5.0016082618       27.2694914910
  H         9.3205371183        4.0096288209       28.7209810192
  H         9.5133687331        5.6902238921       29.0661559363
  C         9.7020815853        4.5272685757       26.2663105230
  H        11.4847459857        4.3909967353       27.1362124926
  H        10.9826812029        5.9850212740       27.0009720211
  C         8.3344262772        5.2496677526       26.1904932637
  H        10.3301052672        4.6470612205       25.3858836279
  H         9.5981605238        3.4577610219       26.4372091236
  C         7.2268312956        4.6377843630       25.2986190617
  H         7.9480652164        5.2919161241       27.2120564735
  H         8.4343384035        6.3153329014       25.7957144977
  C         6.8201154211        3.2808381061       25.9458224145
  C         7.7691681280        3.8985956975       24.1162640827
  C         6.0272838089        5.5072494175       24.8072850145
  C         7.0553607232        2.1692859587       25.1475441584
  C         6.4453760049        3.0057309503       27.2688005501
  C         7.6550812755        2.5249041963       23.9658670279
  C         8.2400452129        4.5449535984       22.9777398264
  H         5.4242442141        5.0134233986       24.1081585159
  H         6.4171365701        6.2906913050       24.1937809415
  C         5.1793745830        6.0522111137       25.9521094857
  S         6.7533426526        0.6874003159       25.9688403047
  C         6.2614925535        1.6010451890       27.4266199079
  H         6.2835073812        3.8204356881       27.9635265665
  C         8.0963085089        1.9326513106       22.8579903714
  H         8.1371454857        5.5432280777       22.9423830140
  C         8.6459169401        3.9239220802       21.8294362541
  H         5.8011709576        5.8867986961       26.7861266432
  H         5.1565800766        7.0913222440       26.0290084354
  C         3.7623308910        5.4378338873       26.0056470286
  C         5.8014423548        1.0072693827       28.7695057790
  C         8.6468953686        2.5892770101       21.7378284491
  H         8.1065808871        0.8614503032       22.7456011702
  C         8.9704641866        4.3360328758       20.5777548001
  H         3.9781774030        4.3625924335       26.0373127340
  H         3.2322959673        5.4497699763       25.0905664334
  C         2.7752901133        5.8658517417       27.0703670760
  C         5.7643435243       -0.3683686585       29.0935566042
  C         5.3891323063        1.9191296019       29.8898579437
  C         9.0696482995        1.9405981966       20.4535363309
  C         9.3404140352        3.2839836633       19.7818119477
  S         9.1792819823        5.8746585864       19.8362686509
  H         1.9819864859        6.5117861234       26.7232972583
  H         3.2377024634        6.4569268997       27.7626935237
  C         2.1758335751        4.6555095447       27.8341850112
  N         6.2426462664       -1.4093835451       28.3094410324
  C         5.5090223386       -0.8252520745       30.4232649870
  C         4.9895127187        1.4559894300       31.0924235441
  H         5.2132570521        2.9627949937       29.6500812684
  C         7.9016535259        1.0753818941       19.9413982489
  C        10.3447993113        1.1569280591       20.6065160519
  C         9.6616348264        3.7125671740       18.4398929580
  C         9.5854504375        5.0721482992       18.3372161673
  H         1.5348001584        4.0373085236       27.2113005336
  H         3.0048132608        4.0530892926       28.2071152896
  C         1.1868601884        5.0114728180       28.9861552008
  S         6.3646854499       -2.7995159713       29.1710906272
  N         5.7319747171       -2.1886091738       30.5861132380
  C         5.0297370864        0.0421428671       31.4952794675
  H         4.7943146352        2.2928256162       31.7789585897
  H         7.7627592605        0.2287772559       20.6281963710
  H         8.2652187292        0.6864584021       18.9797403926
  C         6.5698810616        1.8346884031       19.6266001854
  H        10.6275518057        0.7465195727       19.6869231842
  H        10.2632040126        0.4358189546       21.3803018348
  C        11.5296419914        2.0428523883       21.0393709450
  H         9.8103926732        2.9485765275       17.6511721890
  C         9.8855796254        5.8692025504       17.0820560594
  H         0.5329533713        4.2440872360       29.4096076751
  H         0.4868820006        5.7210136190       28.5454467998
  C         1.8136560825        5.6238857621       30.1397930512
  C         4.9953752787       -0.5285175869       32.8062245740
  H         6.7362676283        2.4618782102       18.6983841077
  H         6.2180753100        2.3906017372       20.5204463986
  C         5.3795416849        0.8982321185       19.3643965159
  H        11.2430143269        2.6874802446       21.9168845314
  H        11.8774047531        2.7143895465       20.2443711562
  C        12.7604098741        1.2000780666       21.3996342077
  C         9.8754824866        7.3084745630       16.9659816389
  C        10.0903188465        5.1247655791       15.8312928534
  H         2.5207127589        6.3639468110       29.7690186424
  H         1.0559152845        6.1956514848       30.6657049432
  C         2.4747008479        4.6064389795       31.0986549374
  H         5.2218839497       -1.5577040960       32.7946135127
  C         4.6388567245        0.0015594525       34.0364157781
  H         4.8122615957        0.6527210454       20.3190231641
  H         5.7698594777       -0.1166144830       19.0324718977
  C         4.3779942088        1.4507284152       18.3294330064
  H        12.4993593010        0.4273322692       22.1535348799
  H        13.3294913716        0.7941654472       20.5444644979
  C        13.7292124393        2.1014976856       22.0905049867
  N         9.5080262497        8.2235208909       17.9523257049
  C        10.2224969999        7.9553811494       15.7990187980
  C        10.2931585996        5.7986526565       14.5864513076
  H         9.9851823995        4.0781846621       15.8003141562
  H         2.9330896059        5.0260659181       32.0339465590
  H         1.6510546031        3.8580901725       31.3719262516
  H         3.2319748993        4.0077034113       30.6394128454
  S         4.1707601856        1.6120895783       34.4705018632
  C         4.7355364746       -0.9452082833       35.1576260654
  H         4.4723457578        2.5434455636       18.3570092780
  H         4.6369115532        1.2010895967       17.2952337759
  C         2.8832786304        1.0021136146       18.6368748034
  H        13.2342266812        2.5099493661       22.9921969091
  H        13.8566377086        2.9622935356       21.3786400107
  C        15.1365495174        1.3921019083       22.2710414424
  S         9.6223656301        9.7772207617       17.4097863477
  N        10.3011468801        9.3764733925       15.9813596622
  C        10.5034092797        7.2779410133       14.5021390429
  H        10.3548138201        5.2357191519       13.6909315722
  C         4.2579518000        1.0382591187       36.1300443904
  N         4.3697578113       -0.3388833464       36.2871249709
  O         4.7773317449       -2.1501066496       34.9853717881
  H         2.2466522668        1.5458557256       17.9534847107
  H         2.5755631421        1.3781433971       19.5613060052
  C         2.6533497823       -0.5095760467       18.6582600037
  H        15.0569028114        0.2815579369       22.5540950249
  H        15.4772840820        1.4243866204       21.2074498754
  C        15.9318469462        2.1147801321       23.2925979980
  C        10.8898950482        8.1073242544       13.4181697805
  S         3.8141557852        2.0365367168       37.5051627524
  C         4.3953164994       -1.0146725885       37.6124462230
  H         3.3988230729       -0.9581454952       18.0862635238
  H         2.6542732400       -0.8887725254       19.6289725170
  C         1.3362868794       -0.7660140072       17.9074996921
  H        15.2565735388        2.0839309075       24.0771801880
  H        15.9666243567        3.1589313130       23.0667852700
  C        17.2424846482        1.3798136047       23.5595707827
  H        10.5391609327        9.1005109361       13.5694682613
  C        11.2828569170        7.8857350385       12.1277299854
  H         3.6711842430       -0.5541209541       38.1894201229
  H         4.0729008907       -2.0614070392       37.3025551296
  C         5.8261264226       -1.1545564110       38.1103625645
  H         1.3533049945       -0.3174159202       16.9079299643
  H         0.4270611250       -0.3570884617       18.3550226779
  C         1.1231646017       -2.1825200379       17.6177474180
  H        17.7748658439        2.0199088680       24.2421894091
  H        17.0555846270        0.5351847473       24.2199739300
  C        17.9991258099        1.0673642057       22.2956814617
  S        11.7519373546        6.3535091004       11.5463332015
  C        11.2633010034        9.0058123633       11.1783669129
  H         6.5232958097       -1.3961516156       37.2669560884
  H         6.1908341622       -0.2576790056       38.6054047560
  H         5.9167039238       -1.9503064806       38.8680142024
  H         1.4682506041       -2.6831580196       18.4846312316
  H         1.6114370821       -2.3894912352       16.7080498459
  H         0.0760896530       -2.4377325730       17.5161038281
  H        19.1175669200        1.0520934462       22.5082554201
  H        18.0056469821        1.8138095551       21.5313192973
  H        17.5828715369        0.1492577262       21.7963471527
  C        12.0063941367        7.2072405598       10.0223115733
  N        11.7023100476        8.5051947393       10.0261513893
  O        11.0311885619       10.1996783952       11.4920881682
  S        13.0796898337        6.6730324289        8.6345092548
  C        11.7326896745        9.4169309219        8.8622738467
  H        11.8461020444       10.4954272575        9.0229106988
  H        12.5377092259        9.1627772994        8.2227367617
  C        10.4799500444        9.2244312855        7.9998910988
  H         9.6944002756        8.7693507813        8.5512940693
  H        10.0796460210       10.1952497251        7.8244605707
  H        10.5619703013        8.5888034013        7.1334759140
  H        20.8392625231       10.9312153799        3.1044008946
  C        21.6882433078       10.3240383588        3.2497999277
  H        21.1850066592        9.3970542292        3.2794944909
  C        22.3944555637       10.6933730106        4.5271362507
  C        22.5813899696       10.3292080622        1.9790865720
  C        21.4287427622       10.7199430507        5.6486506804
  H        23.3168990115       10.1365550371        4.6521398753
  H        22.8519449975       11.6676776007        4.3030891547
  H        22.8865370019        9.2548893954        1.6857720675
  H        23.4633891731       10.9902190475        2.2422800729
  H        22.1289075600       10.8361424214        1.1735239863
  C        20.9991609663        9.3306823754        6.2416111958
  H        21.8348643913       11.3157005609        6.4720333019
  H        20.4845683618       11.1550413650        5.3268247006
  C        19.9446741684        9.4722790144        7.3835200381
  H        21.8865342493        8.7710495079        6.5572596683
  H        20.4706832919        8.7274234404        5.5057286039
  C        18.5633773667        9.7728149380        6.8012455977
  H        20.3217564937       10.2317651618        8.1025362037
  H        19.8776730387        8.5786275538        7.9831228888
  C        17.4664382293        9.9736389228        7.8189845063
  H        18.5012806613       10.6058717430        6.1255178175
  H        18.1540432442        9.0063872603        6.1080155495
  C        16.2627837672       10.8790846195        7.4066067465
  H        18.0289882879       10.4618628959        8.5883063739
  H        17.2133160170        8.9885238825        8.1460125384
  C        16.6766232105       12.2412912142        6.7991862608
  C        15.8406765060       11.5803109326        8.6825860927
  C        15.1130730857       10.1579888604        6.6516785408
  C        16.4615872826       13.3606254390        7.5770363724
  C        17.1377222005       12.6214856424        5.5397887587
  C        15.9358957711       12.9487566298        8.8046850665
  C        15.3068820471       10.8995955940        9.8233882996
  H        15.6458838563        9.6351978694        5.9304861140
  H        14.5484560674        9.5098111895        7.3109730196
  C        14.1327268195       11.1048425002        6.0190904510
  S        16.8223897343       14.8373927088        6.6990144780
  C        17.3512158134       13.9182480105        5.3224497175
  H        17.1762305286       11.7626344143        4.8223346091
  C        15.4919740210       13.5632678135        9.9641164915
  H        15.2207819393        9.8077329351        9.7602189194
  C        14.9011672646       11.5115365396       10.8978144777
  H        14.5735485395       11.7494904832        5.2701196951
  H        13.7088957051       11.7864358404        6.7080485164
  C        12.9726592362       10.3441750008        5.3535232784
  C        17.7204434491       14.5061605137        4.0601166778
  C        14.9999879932       12.8352547878       11.0334291920
  H        15.5820093339       14.6664771526        9.9201009414
  C        14.4187360109       11.0764347170       12.0978008096
  H        12.0200116846       10.6286997463        5.8123127802
  H        13.0178040370        9.3111354361        5.6147977648
  C        12.6933302821       10.6742550982        3.9043965640
  C        17.8621441785       15.8957687711        3.8453463619
  C        18.0339790179       13.6518723295        2.9058089204
  C        14.5703224467       13.5193824906       12.2951156497
  C        14.2379264677       12.1204529297       12.9568321715
  S        14.3514196187        9.5319066375       12.7201871386
  H        12.6995541558       11.7436733186        3.5927673160
  H        11.6052396854       10.4267138145        3.7230321917
  C        13.4159546284        9.8664990891        2.7965746029
  N        17.7410044846       16.9987736670        4.7631134994
  C        18.1671943804       16.4570923377        2.5750592704
  C        18.4376496845       14.1670200703        1.6710223577
  H        17.9948457657       12.6072808213        3.0837077215
  C        13.3168327662       14.3419305360       11.9794476775
  C        15.6457503820       14.3502539611       12.9576839405
  C        14.0254488544       11.5957395118       14.1977467299
  C        14.0225769090       10.2285091026       14.2888004484
  H        14.5694300038        9.7224091829        3.0094819293
  H        12.8901621634        8.9024633661        2.7993441233
  C        13.2697288253       10.4296087225        1.3505871003
  S        18.0838816722       18.3635071047        4.0340091580
  N        18.3456810787       17.8470716784        2.5431969391
  C        18.4778616725       15.6064893223        1.4255631787
  H        18.6924910552       13.4827158545        0.8984080736
  H        13.7471516950       15.1224587201       11.3137670268
  H        13.2063256599       14.9334938371       12.8886881217
  C        12.1568362068       13.5295975574       11.4143934434
  H        15.8745067150       15.2728260302       12.3594518834
  H        15.3063794522       14.7734349737       13.9193251448
  C        16.9836659402       13.6754864942       13.2108569863
  H        13.9028579662       12.2535592660       15.0441473995
  C        13.7861424640        9.4224332164       15.4743811056
  H        13.9610061607       10.1169218901        0.5614141530
  H        13.5221911887       11.5002437533        1.4349673990
  C        11.8995021711       10.0812348368        0.7401221106
  C        18.7354547440       16.1776079287        0.0750211206
  H        12.4810710399       12.8525356532       10.5902755482
  H        11.6982858427       12.9025395576       12.2347985899
  C        11.1349057477       14.4145797395       10.8148290243
  H        17.4464836348       13.6556374823       12.3000135514
  H        17.0101656018       12.6277191895       13.5462340399
  C        17.9497654869       14.5058544240       14.0779087571
  C        13.6236678881        7.9935060359       15.5486321468
  C        13.7359969250       10.1630946139       16.8039577688
  H        11.8456688552        9.0092471009        0.9001225203
  H        11.0922386142       10.5112183785        1.3148538005
  C        11.7066117349       10.5230079454       -0.6376608055
  H        18.6289408211       17.2368986827        0.0398710713
  C        18.9842879115       15.6149558049       -1.1649768098
  H        11.6138463863       15.1748553058       10.2503914731
  H        10.5971651378       14.9693779340       11.5678983244
  C        10.1486912723       13.6552709291        9.9383939990
  H        18.3141624850       15.4080884903       13.6185492982
  H        17.4571335394       15.0063976777       14.9766645017
  C        19.1180106728       13.6052934427       14.6622750850
  N        13.9364962349        7.1097320701       14.4833657993
  C        13.3275944907        7.3061913221       16.6809678630
  C        13.5060224696        9.4717985133       17.9489697892
  H        13.9513854536       11.2598076560       16.9256751750
  H        10.8072380032       11.1592620249       -0.6297692278
  H        11.6251671562        9.6434026029       -1.3006292102
  H        12.5543644921       11.0657305732       -1.0475092314
  S        19.3015448414       13.9298861704       -1.5993921029
  C        18.9884769732       16.5938519508       -2.2696232812
  H         9.9596565686       14.1157003146        8.9353990624
  H        10.4013458859       12.6287288509        9.6342760887
  C         8.7661565506       13.7872998712       10.5134386017
  H        19.5635515864       13.0192643813       13.8616997173
  H        18.5441981750       12.9699699371       15.2913103178
  C        20.1299223482       14.4710344354       15.3978457173
  S        13.5863401033        5.6119858177       14.9324895470
  N        13.2920240760        5.9019301419       16.5212394630
  C        13.2464722147        8.0217057667       17.8951605633
  H        13.4144684751       10.0398390358       18.8628972021
  C        19.5066718941       14.6113717438       -3.2370428762
  N        19.4460088293       15.9710757243       -3.3469425705
  O        18.9944696495       17.8111785023       -2.0365204777
  H         8.8682939532       13.6858353584       11.5894606300
  H         8.4559417072       14.7730494395       10.3468035002
  C         7.8074471310       12.7494755905        9.9151460336
  H        19.7537264993       15.4235655240       15.8325763616
  H        20.5211936905       13.8769908326       16.2485095703
  C        21.2478696213       14.7348034050       14.3926948977
  C        12.8561439128        7.2282739358       19.0434825495
  S        20.0953264497       13.7658199269       -4.6347185867
  C        19.6389070656       16.7305041421       -4.5580642773
  H         8.2657512803       12.4251738012        8.9255959597
  H         7.7520119597       11.8873092653       10.6525480111
  C         6.3916045059       13.3254354333        9.6635821459
  H        21.0399562428       14.3496468269       13.3931082270
  H        22.2211235499       14.3570546589       14.7256584650
  C        21.3314951231       16.2731486228       14.3953329448
  H        13.1203526857        6.2103598979       18.9709484397
  C        12.3083289985        7.5462312671       20.2641735227
  H        20.4233904320       16.3437527873       -5.0994414881
  H        19.9390000035       17.7237230542       -4.3720922697
  C        18.3007704993       16.8181950534       -5.3490427883
  H         6.1419248042       14.0542758985       10.4795012416
  H         5.6913323780       12.5102426512        9.8233700914
  C         6.1051573819       13.9951612473        8.3070936591
  H        21.7926260930       16.5482106041       13.4663282877
  H        20.3858982229       16.7462739631       14.2335971466
  C        22.2052509766       16.9543105615       15.5255841619
  S        11.6291649296        9.0657164392       20.5767499649
  C        12.1933102940        6.5096095882       21.3377871150
  H        17.4197062013       16.8868105501       -4.6729700530
  H        18.1414321801       16.0558236695       -6.0480252752
  H        18.3114425323       17.6904223772       -5.9704289106
  H         5.1401445768       14.0512399584        8.0421699037
  H         6.5884066522       15.0059729716        8.2575211205
  H         6.6335674862       13.4803151677        7.4743865696
  H        21.6360188018       17.8226775766       15.7928517776
  H        22.4143086373       16.3497638474       16.4156940700
  H        23.0534819129       17.4555706796       15.0485622179
  C        11.2102105678        8.3811335131       22.1629706211
  N        11.4542306675        7.0675885148       22.3502268567
  O        12.6644955755        5.3349828914       21.4066223293
  S        10.8196370499        9.2793240164       23.6131943676
  C        11.2545856409        6.4696500597       23.6732761489
  H        11.1356396816        5.4323743105       23.5129722773
  H        10.2841483274        6.7258427403       24.1488002391
  C        12.5320227408        6.6223043926       24.5770331066
  H        12.4751042861        7.2286604988       25.4583016242
  H        13.3459891601        7.1010263741       24.1006915778
  H        12.8741055128        5.6269340002       24.7132893657
