352
 i =    37400, time =    37400.000, E =        25.3278947301
  H        11.5397039250        7.4362819311       32.2315844882
  C        11.3047797460        6.4466368682       32.3862486078
  H        12.2382350308        5.9573562918       32.2458388910
  C        10.3516442133        5.9843405795       31.2986766608
  C        10.6637411428        6.2945698494       33.7666310222
  C        10.8772839449        6.4309770884       29.9060928426
  H        10.3288642718        4.9412372454       31.2017636756
  H         9.3518266345        6.3274492707       31.3678366104
  H         9.6991507122        6.8453714435       33.8636262249
  H        10.5227960720        5.2507222739       34.0760715590
  H        11.3861679627        6.6723495968       34.5157324493
  C        10.4338252827        5.4360386753       28.9084980583
  H        11.9864877976        6.5189895199       29.8838680379
  H        10.5796569273        7.4320027852       29.6766929335
  C        10.7461579858        5.8103582516       27.3889912120
  H        10.8767852548        4.4581674058       29.1624670549
  H         9.3935537458        5.3040780768       29.0005630893
  C         9.7219083991        5.2617508126       26.3974660693
  H        11.6658090900        5.4031597134       27.0032050534
  H        10.7918157399        6.8529420892       27.3497315178
  C         8.4820035542        6.1018582837       26.2055079895
  H        10.2827724896        5.0991212753       25.5405749517
  H         9.5109671112        4.1615713340       26.6462115254
  C         7.3406027861        5.4642642607       25.4151549600
  H         8.2498595589        6.4736549855       27.2001349672
  H         8.7722698863        6.9584925766       25.5436814282
  C         6.9653423497        4.1796200040       26.1257757783
  C         7.7194134436        4.7097935135       24.2194281288
  C         6.0431119377        6.3478384226       25.2523351854
  C         7.2072485100        3.0653357713       25.4129256741
  C         6.4707891488        3.8584202925       27.4145357582
  C         7.5626751766        3.4000860796       24.1196229850
  C         8.1680907426        5.3892892281       23.1029245036
  H         6.2695846262        7.2153518281       24.5894672259
  H         5.7528227628        6.7757057220       26.1926475800
  C         4.8044525811        5.6388103742       24.7554135986
  S         6.8284619618        1.6177788703       26.2143898607
  C         6.3138357967        2.4712265029       27.5955514258
  H         6.2385049887        4.6966387332       28.0752954331
  C         7.8606462516        2.8088160084       22.9566311746
  H         8.2088831349        6.5144371822       23.2475051765
  C         8.3796056086        4.7645252210       21.9054095633
  H         4.9299894617        5.4683379524       23.6883270478
  H         4.7088362092        4.6780504779       25.2249459982
  C         3.4434974182        6.3750403533       24.8891797666
  C         5.7512285082        1.8016493363       28.8040348532
  C         8.2193251041        3.4395287396       21.7893436626
  H         7.7741410288        1.7361054741       22.8143639428
  C         8.6945101250        5.0381721302       20.6231049248
  H         2.6648885917        5.8356345479       24.2931751561
  H         3.6110624719        7.3882915220       24.5350918810
  C         2.8770916712        6.4720188497       26.3018341462
  C         5.7520288720        0.4302508914       29.0489825656
  C         5.4437792219        2.6178929403       30.0176387177
  C         8.4087336018        2.6390482687       20.5471814207
  C         8.7014674060        3.9379441197       19.8305585007
  S         9.0190566620        6.5027084090       19.7475140767
  H         1.9662460934        7.0235772265       26.3231952447
  H         3.5341177719        7.1062195019       26.9337382857
  C         2.4856708058        5.1394465470       27.0596036254
  N         6.0975810478       -0.5841777351       28.1302141210
  C         5.4836204109       -0.1545842952       30.3015931626
  C         5.0163310408        2.0975362645       31.2211202301
  H         5.2817667440        3.7009958058       29.8483656370
  C         7.0214943776        2.0388684100       19.9572222547
  C         9.6569649001        1.6134861462       20.7504778680
  C         9.0664296323        4.2577744197       18.4378797804
  C         9.3051496578        5.6075963646       18.3106517816
  H         1.8248096844        4.5772317546       26.3806093746
  H         3.3036569008        4.5385189651       27.2387791901
  C         1.6951196175        5.3591458856       28.3567434829
  S         5.9931924869       -2.0452103290       28.7369487909
  N         5.5949007807       -1.5547795999       30.2705252024
  C         5.1480786024        0.6093879624       31.4327176730
  H         4.7512208798        2.7871914452       32.0283381512
  H         6.6662780798        1.4046414719       20.7344453827
  H         7.2197781473        1.5479020340       19.0468071274
  C         5.8207508078        2.9725052740       19.6860711153
  H         9.8332313723        0.8806782482       19.9143834062
  H         9.4841134507        0.9443983800       21.6072057813
  C        10.9875810609        2.3990141234       21.0104083639
  H         9.1583596149        3.4183607570       17.7422799172
  C         9.6505118045        6.3591107778       17.0766401330
  H         1.2056975627        4.4604785375       28.5831813214
  H         0.9171234439        6.1144890199       28.2486905733
  C         2.6556151793        5.9826344402       29.4347382464
  C         5.0045973687       -0.0612302943       32.5793884025
  H         5.9505701681        3.7097395957       18.8699843093
  H         5.5722566786        3.4814321266       20.6213584606
  C         4.5448560299        2.2167124408       19.5008442020
  H        10.8858002793        3.0358465965       21.8863269536
  H        11.1041199781        3.2058547682       20.2685891133
  C        12.2750931646        1.5567468238       21.0778216620
  C         9.7658822242        7.7982276630       16.8774476005
  C         9.9867537254        5.6184888263       15.8638665284
  H         3.7437583219        5.9307405805       29.2606914744
  H         2.3898600020        7.0018935781       29.4869805752
  C         2.4426195589        5.3044808959       30.8029454588
  H         4.8985688471       -1.0950333070       32.4564967223
  C         4.7805651153        0.3186011329       33.8731084216
  H         3.7425388114        2.4626231083       20.2415384350
  H         4.8017319373        1.1626762398       19.7726810735
  C         4.1687538470        2.3594691216       18.0040640313
  H        12.1626459544        0.9645356401       21.9427281755
  H        12.3203728455        0.8231178552       20.2743165945
  C        13.5909835221        2.2889646496       20.9748155694
  N         9.6939118954        8.7450089116       17.9218825814
  C        10.2046343378        8.3198265736       15.6263307997
  C        10.3174079068        6.1441182627       14.5953986324
  H        10.0074718173        4.5404744488       15.9595350449
  H         1.4060273143        5.1886434413       31.0743914066
  H         3.0080904431        4.3751779045       30.7612330085
  H         2.9906942826        5.7775076393       31.6253253650
  S         4.5417140466        1.9689646722       34.3922446103
  C         4.5795361643       -0.7624185307       34.9183303117
  H         4.1555346505        3.3856471369       17.6555913552
  H         4.8819553651        1.8471084569       17.4399067878
  C         2.7543062275        1.6956567251       17.8020235166
  H        13.3646490044        3.1947819897       20.3568469413
  H        14.4610780712        1.7731104821       20.4769511909
  C        14.0656636483        2.7650663308       22.3038574580
  S        10.0219662846       10.2352468800       17.2624871458
  N        10.4333839865        9.7107973179       15.7821605355
  C        10.4557665106        7.5982975945       14.4615789493
  H        10.5190023284        5.4462933935       13.8838068159
  C         4.1627704270        1.1883275919       36.0054672914
  N         4.1939171642       -0.1480870506       36.0597132745
  O         4.6259931887       -1.9661845875       34.6782632880
  H         2.5593270269        1.8449361290       16.7227835422
  H         1.9923959423        2.1832210821       18.4475790149
  C         2.7783663879        0.2132886312       18.1535870338
  H        14.9311503200        3.3915677844       22.2304281983
  H        13.3155587123        3.2375249192       22.9651152544
  C        14.6708275124        1.6079721542       23.1572356177
  C        10.7856694977        8.3496973497       13.3206656630
  S         3.7023328301        2.0358801898       37.5558216269
  C         4.2792955999       -0.9329819606       37.3243437858
  H         3.7782170509       -0.0551395273       18.0022839188
  H         2.4733721785        0.0209774108       19.2133525543
  C         1.9191604598       -0.5984326886       17.1868887345
  H        14.7003528814        0.7242466054       22.5448788573
  H        14.0553175158        1.4636414735       24.0447130512
  C        16.1188526306        1.9254709476       23.6557646435
  H        10.8337500984        9.4068607601       13.4460093376
  C        11.2520125328        7.9171101602       12.0768455670
  H         3.5625293279       -0.7158831970       38.0298904659
  H         4.1020680984       -1.9647701820       37.0784642074
  C         5.7284987914       -0.8245751101       37.8774829934
  H         2.1605388904       -0.2842996720       16.2067646414
  H         0.8425646954       -0.4460854916       17.1686635220
  C         2.2000997155       -2.0871314667       17.3914475160
  H        16.1311775114        2.9595986671       23.9472319683
  H        16.3361599895        1.4428517159       24.5577328228
  C        17.2601230289        1.7740496301       22.5424123810
  S        11.4266586883        6.2587832974       11.5447209081
  C        11.5174106429        8.9417191507       11.0722250022
  H         5.8375394019       -0.1876641640       38.6784018752
  H         6.0572589765       -1.8360080627       38.1941128780
  H         6.4646021247       -0.5931562293       37.1836668979
  H         2.6963261793       -2.3986570446       16.5228886821
  H         1.2933252363       -2.6694386067       17.6458013976
  H         3.0107950823       -2.2373391013       18.1232554356
  H        18.2330607425        2.1980752958       22.9284291669
  H        17.0340929888        2.1974236370       21.5588469533
  H        17.3977884419        0.7125405041       22.4081919074
  C        12.1678271942        6.9914902936       10.1356193348
  N        12.0909536308        8.3680844219       10.0182635456
  O        11.3312926816       10.1587582412       11.2683237361
  S        13.1247307052        6.0214640706        8.9814259604
  C        12.3435508712        8.9976107218        8.7518037205
  H        12.4714644780       10.0314777472        8.9692358648
  H        13.3283628635        8.7201670820        8.3681205600
  C        11.0562488233        8.7881824011        7.9481580131
  H        10.1831031569        9.2256308164        8.5296033903
  H        10.9389020119        9.1904069707        6.9266899046
  H        10.9314223312        7.6554909983        7.8835906713
  H        21.1175607421       11.0560962197        3.4118916058
  C        21.8302095097       10.1134847305        3.5178975470
  H        21.1752967300        9.2367966598        3.5618227146
  C        22.5352221223       10.1456680728        4.8506657443
  C        22.7480670308       10.0986053107        2.2936822029
  C        21.6669379512       10.4236255529        6.1364407515
  H        23.2905552385        9.3662273605        4.9316024457
  H        23.1301530070       11.0235770878        4.7531333694
  H        22.0607307392       10.1944881044        1.4198381519
  H        23.3108794839        9.1165058158        2.3196766492
  H        23.4268546337       10.8414749571        2.2562893921
  C        20.7558403058        9.1915243900        6.4299585496
  H        22.3577013332       10.5197298449        6.8990742405
  H        21.0673537560       11.3237587864        5.8583822189
  C        20.2489177153        9.1695543204        7.8920656479
  H        21.3537404624        8.2176966596        6.5594709904
  H        20.1536354335        9.0180244127        5.5260478188
  C        18.9582220824        9.9076075157        7.9757851963
  H        21.0637995728        9.6397505525        8.4587495380
  H        20.0711252932        8.0323160653        8.0814016011
  C        17.8126703605        9.3014988464        7.2805627168
  H        18.8308448799        9.9959305299        9.0159017790
  H        19.1769944616       10.9327493668        7.5532952846
  C        16.6355753430       10.2062499418        7.0903990443
  H        17.5525820563        8.4363744320        7.8024928288
  H        18.1673650745        8.9107159236        6.2970906928
  C        16.9859380636       11.5758208696        6.3510049695
  C        16.1865872591       10.9891727654        8.3347187335
  C        15.3759451470        9.5178514641        6.4363476324
  C        16.6843100929       12.7369158254        7.1035943351
  C        17.4758024292       11.9722009341        5.0949129301
  C        16.1825820313       12.3473724332        8.3560226037
  C        15.6713468539       10.2856689203        9.4396852861
  H        15.7640684404        9.0280862794        5.5625741122
  H        14.9440916916        8.7606010387        7.0663212066
  C        14.2099044842       10.3667316344        5.9328316225
  S        17.1718077395       14.2554663768        6.3189438729
  C        17.6347871568       13.2889970428        4.9246775568
  H        17.8108995669       11.1985524635        4.4702445900
  C        15.7718847443       12.9711510730        9.4853638842
  H        15.6862391942        9.2066829127        9.3687797329
  C        15.3204883189       10.9841599751       10.5500241033
  H        14.5120143124       11.2871885043        5.4793150962
  H        13.6185566657       10.7318441850        6.7602658945
  C        13.3141420784        9.7276470549        4.9257547859
  C        18.0350710136       14.0420500071        3.6468838406
  C        15.2431264650       12.3040714242       10.6079429556
  H        15.7477085980       14.0375515812        9.4978615823
  C        14.8642425660       10.5926493380       11.7835770654
  H        12.3732373494       10.2771549192        4.8515628157
  H        13.0814583331        8.7359191644        5.2630506862
  C        13.8805200636        9.5983766582        3.4963660431
  C        18.0804855053       15.3857398020        3.3994182957
  C        18.4281118333       13.1566076375        2.5204066422
  C        14.8808639321       13.0606022726       11.7971042836
  C        14.6702336178       11.7111044425       12.5871146856
  S        14.7316022571        9.0557235155       12.5441383042
  H        14.6359380747        8.8340030284        3.5323907916
  H        14.4203576893       10.5057770498        3.2820588042
  C        12.8707342561        9.4106197399        2.3519958214
  N        17.7434195191       16.4258162321        4.3757786668
  C        18.4106800996       15.9547640613        2.1426544718
  C        18.7299823899       13.6955488898        1.2635616290
  H        18.3069987225       12.0547727510        2.5673873624
  C        13.6496445620       13.9609289358       11.5553391224
  C        16.0335504528       13.8067952029       12.4785872947
  C        14.3424158498       11.2931793607       13.8936746458
  C        14.2948074494        9.9128869372       14.0192597575
  H        12.2160941579        8.6010780756        2.7488788290
  H        12.2844109614       10.2946704400        2.1333475187
  C        13.4725374050        8.9064648696        0.9583040791
  S        17.9463563566       17.8593431775        3.6681776874
  N        18.4731313843       17.3571106730        2.1808077909
  C        18.6342113303       15.1313590042        1.0173416067
  H        18.9302528842       12.9492188980        0.4760146375
  H        13.6746005660       14.4339542636       10.5733958161
  H        13.6441039721       14.7279966014       12.3421562906
  C        12.2354160353       13.3012549154       11.5215062137
  H        16.3045276902       14.7025788398       11.8795601166
  H        15.5094655097       14.1537139995       13.4126159978
  C        17.3501451674       12.9257758461       12.7663969337
  H        14.3031663703       12.0493857768       14.6917954989
  C        13.8969350526        9.2205891997       15.2765284683
  H        13.7702400707        7.8956725707        1.0190021965
  H        14.4517421235        9.4056333082        0.8027556975
  C        12.6085584753        8.9974206671       -0.2451146771
  C        18.8838400958       15.8126046001       -0.2359204375
  H        12.3036975303       12.6134544085       10.7240837029
  H        11.9946499089       12.7456529644       12.3766981658
  C        11.0112469923       14.3025610484       11.1406678135
  H        17.8621015791       12.7467826945       11.8166622806
  H        17.1625766191       11.9926974821       13.3054936891
  C        18.3187422511       13.7928229460       13.6052772970
  C        13.7756451560        7.8604043671       15.4751619507
  C        13.5593103364       10.0583496617       16.4261320919
  H        13.4021984780        8.5340943943       -0.8140826468
  H        11.7131704766        8.4065681773       -0.2986423730
  C        12.5152069425       10.3713256608       -0.9074279634
  H        18.4192055125       16.8100058701       -0.2698686640
  C        19.3846761655       15.5046196178       -1.4917060701
  H        11.2224207829       14.7428536868       10.1359044358
  H        10.6576761099       15.0755722013       11.7584162875
  C         9.7667034186       13.4978716365       10.9226103172
  H        18.7765494466       14.5041848762       12.9257360240
  H        17.7813500530       14.3673346450       14.3904940630
  C        19.4846537110       13.0561071585       14.1658081816
  N        14.0139434643        6.9144246779       14.4598191107
  C        13.2833181163        7.3450744141       16.6418745438
  C        13.1687188217        9.4905475485       17.6467297710
  H        13.7345707876       11.1103089933       16.4367784048
  H        13.3293749371       11.0449990154       -0.6277431149
  H        11.5808809891       10.7936753885       -0.7136538909
  H        12.5367004881       10.2621402710       -1.9539130330
  S        19.8363485281       13.9484519906       -1.9756954271
  C        19.4306782123       16.6157479770       -2.5692385335
  H         9.9747372719       12.4532748887       10.6094380546
  H         9.2081529836       13.4481556787       11.8737726631
  C         8.7139979408       14.2268091966        9.9717071147
  H        19.8693774204       12.3661934638       13.4648811747
  H        19.3037857691       12.4738333431       15.1096614552
  C        20.6461157968       14.0533326327       14.4356124598
  S        13.9076136620        5.4872490671       15.2223096388
  N        13.2204801302        5.9329373981       16.5994289479
  C        12.9850908025        8.0587408056       17.8573855403
  H        13.1565893568       10.1557046093       18.5644203022
  C        20.1247013415       14.7197827618       -3.5831708918
  N        19.8859126162       16.0273371245       -3.6566151255
  O        19.2338035284       17.7830312555       -2.3178352013
  H         8.0308146519       14.7781353576       10.6750686601
  H         9.1551811876       15.0003043469        9.3635105744
  C         8.0503616676       13.1492252981        9.1215939615
  H        21.4183485687       13.4561432747       14.9057815496
  H        21.0738823546       14.4070362807       13.4678356370
  C        20.3050549264       15.1886295787       15.3914973148
  C        12.6485858112        7.3561756628       19.0485799421
  S        20.5004603027       13.8877986060       -5.0935887909
  C        19.8542573372       16.7810230355       -4.8796084431
  H         8.8039332631       12.9291658015        8.3549603196
  H         7.9384220079       12.2542718005        9.7683729919
  C         6.7465223299       13.4623199643        8.3918948078
  H        19.8162136377       14.8294587495       16.3076987943
  H        19.6494814118       15.9183936869       14.9090992084
  C        21.5003547004       15.9760837476       15.8070648973
  H        12.7194043058        6.3110322596       19.0027818779
  C        12.2202669223        7.8329219947       20.2351134198
  H        20.6944001180       16.5712007676       -5.5365030675
  H        19.9116272172       17.8312712205       -4.6742709761
  C        18.5266263803       16.4565563932       -5.5806153227
  H         6.4859094869       12.5474332509        7.8276956924
  H         6.8438021136       14.2965126506        7.6823478781
  C         5.5469683037       13.6151006163        9.3289556284
  H        21.2173792844       16.7465832972       16.5627429828
  H        22.2134062260       15.3272592694       16.3453185347
  C        22.2562033985       16.8334218175       14.7367210596
  S        11.8130763933        9.4755651034       20.6723944166
  C        12.0788019517        6.8132184622       21.3322696220
  H        17.7400658883       15.9735138256       -5.0226251059
  H        18.6986021479       15.8180529634       -6.4298467655
  H        18.0902595977       17.3474522130       -5.9253636468
  H         4.9989490330       12.7264470096        9.2208594918
  H         5.9437989384       13.7351076815       10.3743995741
  H         4.9395422994       14.5413855422        9.0498684942
  H        22.7958637524       16.2618612201       13.9881830214
  H        21.6446036180       17.4363951487       14.1658189366
  H        23.0003569579       17.4758246031       15.1923222214
  C        11.5194215637        8.8051196176       22.3581861692
  N        11.5475836682        7.4089199144       22.4168123502
  O        12.4673779465        5.6337234685       21.2547902255
  S        10.9234912174        9.7023249743       23.7587236221
  C        11.5267866457        6.6618081483       23.5970053402
  H        11.0824464413        5.6802512315       23.4038473665
  H        10.8859499490        7.0836243096       24.4163400115
  C        12.9489395478        6.4349519099       24.1014288475
  H        13.7611929791        6.5977339888       23.4308860503
  H        13.0754314919        5.3515173047       24.3549074475
  H        12.9506706393        7.0472102818       24.9846844960
