352
 i =    87200, time =    87200.000, E =        25.4902839823
  H        10.6901488359        6.7207954787       31.6840475807
  C        11.6700714827        6.4586025442       32.0666262325
  H        12.2041017022        7.3674491101       32.2899639407
  C        12.4207962739        5.7741320903       30.8923476250
  C        11.5680739032        5.6504053374       33.3172657120
  C        11.5501001624        4.7378307650       30.1452397910
  H        12.6671153153        6.5458970408       30.1797009458
  H        13.3000057917        5.2467671337       31.2798620908
  H        11.2119281548        4.6210150045       33.1015441089
  H        12.4817783819        5.3524972253       33.7975868042
  H        10.8231611282        5.9949249449       34.0984241710
  C        10.3990525906        5.2624306124       29.2157857965
  H        11.0464183617        3.9965914591       30.8168804383
  H        12.3199650488        4.1518794125       29.5711084671
  C        10.8151896568        5.4979900227       27.7930220209
  H         9.6243258171        4.6565548593       29.2283431877
  H         9.8642803222        6.1866693466       29.6233543748
  C         9.8005713620        5.0421151979       26.7512126132
  H        11.6213028416        4.9334941920       27.5561223551
  H        11.0769510806        6.5800251719       27.7582940806
  C         8.6815287446        5.9276950254       26.3134138197
  H        10.5628342352        4.7162830835       25.9395889524
  H         9.2947382585        4.1052609418       27.0595389114
  C         7.5711273901        5.1775460529       25.5850137014
  H         8.1549822414        6.2540325062       27.1756086920
  H         8.9938032606        6.8114086988       25.8103174314
  C         6.9967183052        3.8556933600       26.2106664655
  C         7.9539481634        4.4402727568       24.3847990392
  C         6.3178995850        6.0410652432       25.1896655074
  C         7.2409813126        2.7450094189       25.4191068240
  C         6.4245119062        3.5286490044       27.4459258081
  C         7.8720904799        3.1108246074       24.2932944031
  C         8.5581841695        5.0766831757       23.3084203648
  H         5.7851583638        5.4449183167       24.4533803488
  H         6.7450531341        7.0150380355       24.6907799679
  C         5.3321056271        6.3678983413       26.2987058340
  S         6.6735307301        1.3001440296       26.2201859028
  C         6.2434891867        2.2105123879       27.6420553983
  H         6.2166493265        4.3262537777       28.1068281757
  C         8.2154922243        2.5364706049       23.0929634901
  H         8.6488294933        6.1699295385       23.4909693930
  C         8.8816914463        4.4515925027       22.1461979001
  H         5.6385775906        6.1638533111       27.2759981675
  H         5.2879324600        7.4360399666       26.2955685526
  C         3.8677093903        5.9814796396       25.9455649466
  C         5.9103587714        1.5086716572       28.9385273104
  C         8.6913038824        3.1190761939       21.9408105555
  H         8.0006312077        1.4583912288       23.0240801048
  C         9.2779346500        4.8064711755       20.8653926060
  H         3.7683476712        4.9073734934       25.6098859277
  H         3.6884716193        6.7172612733       25.1287320599
  C         2.8565653892        6.2149005917       26.9988117575
  C         6.0289199696        0.0686570854       29.1595566434
  C         5.2629667682        2.2639478066       30.0864537997
  C         9.0541073888        2.3323136556       20.7306027965
  C         9.3236132413        3.7111236334       20.0236568935
  S         9.5025793846        6.3425216111       20.1549420998
  H         1.9364547491        6.1588190142       26.4038564761
  H         2.8992045820        7.2085730119       27.3753176276
  C         2.6775562693        5.2013655965       28.1081553629
  N         6.4081516343       -0.9008526121       28.2356393465
  C         5.7771156468       -0.5204925714       30.3964352387
  C         5.0497488776        1.6476094732       31.3353369056
  H         5.1499046542        3.3715530006       30.0831676117
  C         7.9485131937        1.6397705316       20.0599936440
  C        10.3504166009        1.4944691909       20.8433423943
  C         9.5819696948        4.1707096800       18.7760794486
  C         9.7084801770        5.5475064853       18.6481464095
  H         2.6545223400        4.1508163432       27.6523353142
  H         3.5155654425        5.3213074659       28.7070116939
  C         1.3157838360        5.3612293794       28.8024048091
  S         6.5397147859       -2.3499422096       28.9416194049
  N         6.0238072522       -1.9313577791       30.4076500560
  C         5.3117392627        0.1723709662       31.5423883473
  H         4.6756714405        2.2620402100       32.1226385886
  H         7.6937847803        0.6871841258       20.4760591190
  H         8.3014343099        1.4120933932       19.0381091625
  C         6.5997564841        2.3445702274       20.0105804718
  H        10.5268145057        0.9637620989       19.9521915771
  H        10.1011626007        0.8087454494       21.6034590608
  C        11.5714919665        2.3072901729       21.2708517179
  H         9.5374006924        3.4347453121       17.9920925680
  C        10.0035968977        6.4318237557       17.3799380911
  H         0.7690659795        4.3496309197       28.7850661662
  H         0.5884025159        5.9383654421       28.2327249823
  C         1.3373541260        5.9015108220       30.2372117369
  C         5.2826916053       -0.4405625493       32.8088293748
  H         6.8192919823        3.1307564709       19.3102980251
  H         6.2530095450        2.6937079086       20.9613609009
  C         5.4934881690        1.4786512474       19.3315996283
  H        11.3039116535        2.8989936526       22.1599568484
  H        11.7880935579        3.0195545177       20.5136766678
  C        12.7754499259        1.5345128666       21.6644652025
  C        10.0136421023        7.8270328130       17.2857288341
  C        10.4024605669        5.7216211421       16.1206412792
  H         1.9828105874        6.7173649604       30.2679530235
  H         0.3238423857        6.2966322903       30.5745880079
  C         1.8118146828        4.8297956851       31.2190434096
  H         5.4457176836       -1.5337934408       32.7801508133
  C         5.0058464834       -0.0034591105       34.0960986265
  H         5.0167882481        0.8369479856       20.0347583375
  H         5.9202519082        0.7129472212       18.6203029601
  C         4.4677795680        2.3575341904       18.5868328392
  H        12.5358982692        0.6363849546       22.2750496910
  H        13.2834891427        1.1758889766       20.8048068465
  C        13.7510688654        2.5282610109       22.3174172050
  N         9.5171200389        8.7203508839       18.2752817307
  C        10.3308824441        8.5511588210       16.1324331164
  C        10.6115368357        6.4887133016       14.9908023425
  H        10.4644764155        4.6201700139       16.1762998067
  H         2.2659649683        5.2848454253       32.0442813153
  H         0.9630749511        4.1711354520       31.5175849053
  H         2.6704786247        4.2723565298       30.8074961963
  S         4.6617881137        1.5742693734       34.5667708758
  C         5.0652567444       -0.9959389594       35.1853202961
  H         4.4354670915        3.3900540240       18.8895092011
  H         4.7820645165        2.3847343696       17.6264719772
  C         3.0085623299        1.8211646618       18.6529721062
  H        13.4213251162        2.8776053225       23.3013115242
  H        13.8038976563        3.4918813522       21.8262847057
  C        15.1737769474        1.9195272843       22.4280394172
  S         9.5244560360       10.2357643136       17.7491415526
  N        10.2462375902        9.9582898012       16.3526800403
  C        10.7105187794        7.9652658611       14.9379399695
  H        11.0054574052        5.9679474703       14.0733117166
  C         4.6789448129        0.9688380115       36.2194753351
  N         4.8706313532       -0.3546633676       36.3050746711
  O         5.3693570970       -2.1770831990       34.9985661212
  H         2.3690520052        2.5220695640       18.0937888637
  H         2.5707704056        1.7795275027       19.6780109425
  C         2.6752594437        0.5511246540       17.8840941310
  H        15.2215558567        0.8636886506       22.4914948865
  H        15.5725351980        2.1791256083       21.4641442555
  C        15.9871902521        2.4254871203       23.6390798271
  C        11.0270994167        8.7268648661       13.7863093897
  S         3.9967528629        1.7940290474       37.6299989898
  C         4.6204356301       -1.1452020873       37.5603081009
  H         2.2699044292        0.8736995122       16.8934174079
  H         3.6697020450        0.1291678898       17.6773849119
  C         1.6847688014       -0.4293035203       18.5371704895
  H        15.4065826885        2.3822621328       24.6014937534
  H        16.2394862025        3.4725557194       23.5203257759
  C        17.2363327257        1.6325885456       23.8143583148
  H        10.9078056254        9.7529046070       13.8346620197
  C        11.4945324328        8.4079968384       12.5403989805
  H         3.6107451080       -0.8358364320       38.0281599616
  H         4.5905989896       -2.1899747526       37.2826270198
  C         5.8848158493       -1.0141325659       38.4570476025
  H         0.7924279734        0.1627955350       18.7776504871
  H         2.0607021695       -0.8181321614       19.4984041539
  C         1.4152082857       -1.5910108201       17.6495079185
  H        17.7073619655        1.8310568505       24.8009220208
  H        16.9817383893        0.5724559394       23.6929177570
  C        18.1757547558        1.8238849637       22.6198403310
  S        12.0882835474        6.9074274745       11.9392705478
  C        11.3627464663        9.4949555430       11.5209872659
  H         5.5987875250       -0.4286175294       39.2715994645
  H         6.1299708544       -1.9844816968       38.8317205122
  H         6.7641899780       -0.6861494323       37.9930881819
  H         0.9774643868       -2.4525883272       18.2006153286
  H         2.3790943792       -1.8100289468       17.2155662946
  H         0.7066413387       -1.2330832785       16.9023265049
  H        18.2265791540        2.8891539995       22.3060317209
  H        17.8597430747        1.0855771026       21.8671568322
  H        19.1448642896        1.5507636498       22.9559723418
  C        12.2835930918        7.7579620515       10.4584030401
  N        12.0059109203        9.0614500577       10.4061970644
  O        10.8301576909       10.6008909076       11.7580076945
  S        12.8761255179        6.9222914657        9.0042437630
  C        12.0738624125        9.9129560996        9.2119311308
  H        12.0616684709       10.9456275293        9.6591651989
  H        12.9402750555        9.7033133313        8.5786956218
  C        10.8782702098        9.5852126273        8.2572841335
  H         9.9615364563        9.9226500573        8.5437706500
  H        10.9647938803       10.1014089755        7.3045937872
  H        10.8683242808        8.5578116770        7.9846183745
  H        21.6284506486       11.5907912197        3.3385554119
  C        21.7515868923       10.5227861103        3.3346013764
  H        20.8283633429       10.0035330367        3.2004970188
  C        22.6124068087       10.1313317831        4.4471180951
  C        22.5650568231       10.3766439246        2.0499928614
  C        21.8222846647       10.0668182793        5.6929787492
  H        23.1481506618        9.1810243365        4.3697707377
  H        23.4142664655       10.8203523128        4.6244650140
  H        23.3428794284       11.1328485082        2.1080553387
  H        21.9895446266       10.6867371648        1.2908105705
  H        22.9494074745        9.3674085143        1.9068436645
  C        21.0505458148        8.8077710959        5.8798037480
  H        22.5064919146       10.0551218143        6.5981831371
  H        21.1827012399       10.9253083217        5.9112568487
  C        20.2481213107        8.8182674804        7.2082669058
  H        21.7614396440        7.9855345092        5.8163471554
  H        20.4065792858        8.6073572822        5.0712491484
  C        18.8936469334        9.2778648559        6.7518040788
  H        20.6315721859        9.4805905839        7.9720039173
  H        20.2097038330        7.8657703894        7.6963486260
  C        18.0224067080        9.8524138167        7.8096477252
  H        19.1978212587       10.0458224614        6.0641880665
  H        18.3964940824        8.6151642275        6.1311826892
  C        16.8381006237       10.7331821991        7.3130610273
  H        18.6811316422       10.3985205221        8.4922635620
  H        17.6429980798        8.9675134600        8.4529572352
  C        17.3594133369       12.0625376620        6.6549878828
  C        16.2811404111       11.4555770048        8.4350978409
  C        15.6982930337       10.0200856461        6.4949142243
  C        16.9123845897       13.2013709348        7.3457942580
  C        18.1567760066       12.4316936658        5.5011165644
  C        16.3891126005       12.8031152318        8.5394132464
  C        15.7331072016       10.7951077638        9.5008792371
  H        16.0298890686        9.2650056802        5.7695772138
  H        15.1063425570        9.3584398830        7.1255401834
  C        14.8207813716       11.0008756462        5.8138711115
  S        17.3465207405       14.6532231854        6.5962189292
  C        18.1053201354       13.7460700733        5.2823641268
  H        18.5379706904       11.6906747473        4.8487589634
  C        15.9347125049       13.3852002603        9.7211842333
  H        15.6494464792        9.7404646398        9.3285834416
  C        15.3571889588       11.3802360154       10.6656088001
  H        15.3132228546       11.7017846458        5.2168089688
  H        14.2457223399       11.5341101543        6.6333620698
  C        13.8508594500       10.3588990347        4.8003749351
  C        18.4955747547       14.3349477811        4.0075058267
  C        15.3957615692       12.7184714119       10.7804240128
  H        15.9398387037       14.4128304162        9.9867754067
  C        14.8845270786       11.0908373541       11.9032726813
  H        12.9546029758       10.9609683647        4.8067055021
  H        13.5506844261        9.3808994175        5.2495844009
  C        14.3095613938       10.3123883316        3.3502102782
  C        18.5099097277       15.7377465722        3.7808915862
  C        18.7529846658       13.4317816039        2.8562999469
  C        14.9981695904       13.4622553320       12.0490935216
  C        14.7935571049       12.1680886645       12.7629679296
  S        14.6688805059        9.6020588057       12.6744979901
  H        15.2919468028        9.7721596006        3.1447375602
  H        14.5994096433       11.3862073533        3.0683984719
  C        13.2614528121        9.9100380254        2.3013229931
  N        18.0976299770       16.6724747686        4.6380992184
  C        18.7084601171       16.2537813768        2.5363503180
  C        18.9717320903       13.9638250712        1.5752968982
  H        18.8225864539       12.3572252813        2.9575769217
  C        13.6798356985       14.2871790288       11.9044348098
  C        16.2359133201       14.2682246547       12.6859687915
  C        14.3746509213       11.7966701788       14.0315613672
  C        14.4201852401       10.4578471617       14.2096597107
  H        13.2674186942        8.7776599327        2.3087695850
  H        12.2843200954       10.1587180703        2.6114849779
  C        13.4995262599       10.5254562251        0.9638435402
  S        18.1184035209       18.1482152378        3.9471989725
  N        18.6617336411       17.6483383655        2.5215943075
  C        18.9279099249       15.4572243497        1.3968946524
  H        19.0149680269       13.3744635196        0.7131874786
  H        13.9169947867       15.2184247847       11.4086031519
  H        13.3784743963       14.6218125018       12.9425353699
  C        12.4862153151       13.6190306924       11.1607019085
  H        16.3335135025       15.0986149645       12.0156309749
  H        15.9764911131       14.7012780687       13.6859793653
  C        17.4340471688       13.3369957150       12.7873725406
  H        14.1886442840       12.5492584534       14.7427517723
  C        14.1391982439        9.6065640795       15.4476508227
  H        14.3871264347       10.0690688247        0.5141105369
  H        13.5962332052       11.5933438237        0.8214209716
  C        12.2898434319       10.2079199350        0.0413825185
  C        19.1819067684       16.1426685081        0.1262262633
  H        12.7300079469       13.4059107659       10.1511883546
  H        12.2783570740       12.6725994917       11.6654273387
  C        11.3383952933       14.5738166918       11.1963950870
  H        17.5891508804       12.6626588834       11.9699850771
  H        17.2296842065       12.8009431752       13.6683179259
  C        18.7632739295       14.1613533573       12.9981784454
  C        14.0761703254        8.2176231309       15.6220968251
  C        13.7693559173       10.3576614139       16.6793178696
  H        12.1819939640        9.1302175072        0.0345392245
  H        11.3297063972       10.5855057887        0.3805472226
  C        12.7140652278       10.5454917433       -1.4563614479
  H        18.9798402097       17.2096360295        0.0160213212
  C        19.5147933672       15.7611996241       -1.1973203870
  H        11.7369478965       15.5537463002       11.0408398147
  H        10.8855929274       14.7221088966       12.1925572509
  C        10.2249770971       14.3215361276       10.2429569248
  H        18.9497704252       14.7993613450       12.1303781820
  H        18.5284956047       14.8900306240       13.7640148928
  C        20.0260880304       13.2744263618       13.3044961683
  N        14.2298949678        7.2899211486       14.5752819594
  C        13.6472953073        7.5978232909       16.7920655560
  C        13.5099730857        9.6966918012       17.9174186408
  H        13.6830023508       11.4067634444       16.5618318029
  H        13.2884820194       11.4895607271       -1.4704035843
  H        11.9029239246       10.7503210649       -2.1392354831
  H        13.4319358415        9.8521548260       -1.8486543310
  S        19.7797531343       14.1596908962       -1.8079314790
  C        19.5613952101       16.8373880732       -2.2953966758
  H         9.8443609066       15.2979203620        9.8911090852
  H        10.5948704975       13.9172448159        9.3072273720
  C         9.0591654950       13.5361103315       10.8304881113
  H        20.5532612263       13.1544661573       12.3609575913
  H        19.5803415671       12.3411919141       13.6439997971
  C        20.9773663372       13.8687490864       14.3480779673
  S        14.1284068746        5.7868087999       15.2313386799
  N        13.6558640423        6.2229376355       16.7603132102
  C        13.3943317451        8.2162774263       18.0365421878
  H        13.3341965013       10.3265640517       18.7774470272
  C        19.9727827966       14.8841617924       -3.4110590814
  N        19.9148862470       16.3063786017       -3.4295454300
  O        19.1965722544       18.0050873207       -2.1880351198
  H         9.4563933306       12.8199235648       11.4043182789
  H         8.3818023136       14.2025055540       11.3861134319
  C         8.2832054983       12.9072745523        9.6892633055
  H        20.6096535555       13.6741380307       15.3681565315
  H        21.8461320107       13.2515729359       14.2020785867
  C        21.3430797798       15.3714732649       13.9948051795
  C        13.0137444085        7.4177503097       19.1367403884
  S        20.5134433096       14.0990277389       -4.8537849596
  C        19.9006994750       17.0596665070       -4.6309250361
  H         9.0277471798       12.4554570325        9.0701599310
  H         7.6582382576       12.1025134139       10.0986165473
  C         7.3167981376       13.8782526268        8.9700888294
  H        20.8654298946       15.6373391201       13.1054090572
  H        22.4296974942       15.4709317985       13.8430241254
  C        20.9148904798       16.4785641154       14.9629039839
  H        13.0063851516        6.3587399883       18.9640242760
  C        12.6114459307        7.7969003921       20.4464984860
  H        20.8042475736       16.6795012502       -5.1952368070
  H        20.2598789930       18.0492739067       -4.3764631559
  C        18.5484400019       17.1021851313       -5.4061642594
  H         7.1045168937       13.4784286409        7.9194087928
  H         7.8980396164       14.7399772678        8.6240419018
  C         5.9810412089       14.1235936006        9.7005558558
  H        19.8604494062       16.6068759225       15.0863749681
  H        21.2718038113       16.3438167767       15.9656570048
  C        21.4476469151       17.7781219002       14.3351130834
  S        12.2215408145        9.2717732374       21.0928248707
  C        12.4516668836        6.6960946297       21.4228982369
  H        17.7017126315       17.4662047487       -4.8190842706
  H        18.3076045501       16.1929760259       -6.0062437721
  H        18.6952025409       17.8539735955       -6.1900702600
  H         5.2863448430       13.3454038216        9.7909009885
  H         6.1571488949       14.3244347862       10.7973266089
  H         5.4036974132       14.8561957720        9.2177027824
  H        21.2501407917       17.7898195526       13.2859093679
  H        20.8951963131       18.6054365090       14.8367681203
  H        22.5028697278       17.9309343214       14.3654773113
  C        11.9163909945        8.5065055862       22.6136075697
  N        11.9956445723        7.1634644390       22.5714482636
  O        12.8809569774        5.5598832708       21.2639701660
  S        11.1959628839        9.3426325939       23.9634055495
  C        11.8792844875        6.3094359098       23.6951536237
  H        11.2849092022        5.4604298234       23.3432261389
  H        11.2406843288        6.7787676143       24.4475659079
  C        13.2731659811        5.9324005661       24.3403929597
  H        13.2848216462        4.8788024279       24.6297398693
  H        13.5128731225        6.4317464611       25.2849414499
  H        14.0922673959        6.1892393468       23.6444617990
