352
 i =     9200, time =     9200.000, E =        23.8087350389
  H        11.7367582939        6.9109019858       32.5462450028
  C        11.2487205934        5.9511468917       32.4909779315
  H        12.1421852757        5.3111414846       32.3871316381
  C        10.2860978908        5.9122236771       31.2907785552
  C        10.5564652163        5.7667087216       33.8491347670
  C        10.9083637298        5.4799610406       29.9510473464
  H         9.5163585468        5.2142111572       31.4736561070
  H         9.8891578585        6.8652349303       31.0034536988
  H         9.6557648539        6.4280924544       33.8850391603
  H        10.2377955983        4.7064132217       33.9141382220
  H        11.2574419702        5.9839756110       34.6976477821
  C         9.9914989366        5.6383691101       28.7104985128
  H        11.3207163647        4.4480327681       29.9919378130
  H        11.7445398601        6.1687783384       29.8290794079
  C        10.6040163923        5.4259810875       27.2837824098
  H         9.3492210154        4.6848520557       28.8500791477
  H         9.4258664715        6.5458890354       28.8844564208
  C         9.6005143123        4.8179086367       26.3412081253
  H        11.4429533403        4.7794922357       27.3907897984
  H        10.9477759555        6.3777898872       26.8758633601
  C         8.5513966232        5.8387129031       26.0005706866
  H         9.9971042809        4.5082731744       25.3720075408
  H         9.2594673067        3.9436458327       26.8944632503
  C         7.2212559680        5.1005078582       25.4234428503
  H         8.2799858418        6.4780250119       26.8349816901
  H         8.9387934133        6.5067462919       25.1867932505
  C         6.8760088914        3.8111360385       26.2270293606
  C         7.5955938966        4.2843010116       24.2020971195
  C         6.0149521721        6.0592698214       25.2428310302
  C         7.0649667577        2.6621072147       25.4583941697
  C         6.3457122038        3.5301896339       27.5120240543
  C         7.5579790498        2.9160064518       24.2275806138
  C         8.0866271793        4.9254082179       23.0520605909
  H         6.2193954269        6.8189906119       24.4957539501
  H         5.7741826308        6.5656584873       26.1902388479
  C         4.8011643015        5.2010853949       24.7492453541
  S         6.6089382578        1.3102506554       26.3173570567
  C         6.1806162399        2.1840812553       27.7503298119
  H         6.0657583951        4.2999915586       28.2353251362
  C         7.9559376103        2.2760999341       23.0773216995
  H         8.1593853142        5.9562893782       23.0043146429
  C         8.5139640288        4.2957825979       21.9324670667
  H         5.0952285070        4.7944852014       23.7901323175
  H         4.6389311585        4.4357488012       25.4919469923
  C         3.5505620517        6.0479919254       24.5575497646
  C         5.8553571350        1.5487748752       29.0379320779
  C         8.5106011007        2.9530041756       21.9325832589
  H         7.9338665814        1.2900308154       23.1302721058
  C         8.9987279477        4.6633132013       20.6974330421
  H         2.7567740714        5.5476589567       23.9836276259
  H         3.7067125321        6.9592964650       24.0534892531
  C         2.8962686294        6.3725270453       25.9520724087
  C         5.7774526197        0.1858307260       29.3078545128
  C         5.6024779287        2.4451002155       30.2340862279
  C         9.0088703930        2.2273724729       20.7028796294
  C         9.2390473690        3.5662046079       19.8821148372
  S         9.1765243317        6.1777181680       19.9493392648
  H         2.3523355560        7.2862530715       25.8698873825
  H         3.7215034789        6.5744830353       26.5923022623
  C         1.9552399738        5.2712219185       26.3985509044
  N         5.9418071971       -0.8051426202       28.3302619624
  C         5.5783977828       -0.3424563251       30.5570113607
  C         5.2931247677        1.9064289461       31.4835296536
  H         5.6007655759        3.5084416532       30.0526363423
  C         7.9096870813        1.3801175905       20.0093405174
  C        10.3831927520        1.4758707914       21.0772060624
  C         9.7294074344        4.0184067544       18.6409028553
  C         9.7047257402        5.3625266393       18.4881778355
  H         1.1374169216        5.0577560111       25.6879054581
  H         2.5156778006        4.3620813743       26.5879302737
  C         1.1312619038        5.5251041503       27.7119734537
  S         6.0984579813       -2.2086373965       29.0901866350
  N         5.7837270425       -1.7752728386       30.6063347663
  C         5.3337401396        0.4448779611       31.6849394162
  H         4.9940796745        2.5852729339       32.3334978243
  H         7.7123919086        0.4714119514       20.5553068157
  H         8.3515996797        1.0786599185       19.0522390358
  C         6.6030184929        2.0891869619       19.8177174824
  H        10.5832031648        0.7657527813       20.2687138428
  H        10.2701256182        0.9493685931       22.0007027990
  C        11.5589500703        2.4044178709       21.0930979644
  H        10.0679719832        3.2280704765       17.9428499150
  C         9.9325777718        6.0804227451       17.1355395917
  H         0.7833756231        4.5492186242       27.9187004219
  H         0.3248331520        6.1455371105       27.5108392363
  C         1.9469278219        5.9808924342       29.0066718888
  C         5.0914270894       -0.1853970897       32.9393677995
  H         6.6840905785        3.1391234924       19.7339304928
  H         6.1948569823        2.0205253247       20.7332146753
  C         5.7671500747        1.4758472603       18.6539686812
  H        11.3864699275        3.3533858463       21.6171635280
  H        12.0243101279        2.5988371257       20.1470158366
  C        12.8209631073        1.7972693473       21.7561779921
  C        10.0089737689        7.4763365549       17.0532721785
  C        10.2337249957        5.3278802542       15.8919462159
  H         2.7832776373        5.3479395637       28.9538904905
  H         2.1637830063        7.0441035891       28.8705397883
  C         1.3735468807        5.6891469636       30.3256493171
  H         5.0512858579       -1.2489035111       32.8190127725
  C         4.8474719753        0.2131672700       34.2755788713
  H         5.6239412995        0.3731150014       18.7650553203
  H         6.2830461049        1.5909981718       17.6769423710
  C         4.3042619187        2.0220952988       18.5870862546
  H        12.4420476150        1.2558874610       22.6226555523
  H        13.1856400557        1.0623644598       21.0373003161
  C        13.8061238188        2.8470675768       22.0790257253
  N         9.8011342718        8.3485971913       18.1226565894
  C        10.3263269451        8.0767757426       15.8247409733
  C        10.4353607584        5.9817224152       14.6263181498
  H        10.1221985845        4.2627319562       15.7918396175
  H         0.3024745918        5.6305971073       30.2589766618
  H         1.7832106232        4.7372417997       30.7054177930
  H         1.8173692503        6.3105794446       31.0389165240
  S         4.5627501287        1.8731863033       34.8095996013
  C         4.5757616856       -0.9329694443       35.2161561969
  H         4.1864958172        3.0003092672       19.0835827147
  H         4.0983174482        2.3067512500       17.5808321599
  C         3.2659023594        1.0338597732       19.0829207423
  H        13.2912701173        3.7336328534       22.5247644969
  H        14.3490724455        3.1867091914       21.2386348570
  C        14.6108859344        2.4932405349       23.2602850761
  S         9.7724257215        9.8632421384       17.4847013877
  N        10.3189194596        9.4305013187       16.0218100041
  C        10.5424680511        7.4673057920       14.6148888250
  H        10.6393823730        5.3970026411       13.7319320186
  C         4.1116038899        1.0048620349       36.3582700720
  N         4.1554288133       -0.3457020652       36.3545732427
  O         4.5273398015       -2.1237835035       34.9015898459
  H         2.4466860395        1.6790785586       19.6402380081
  H         3.7132304576        0.3243034871       19.7877963461
  C         2.4602350297        0.2556605969       18.0285137946
  H        15.1685633284        3.4602078113       23.3887743935
  H        14.0843081705        2.4502469315       24.1705416379
  C        15.5469651685        1.2796593913       22.8684794932
  C        10.9430480066        8.2314618922       13.4237444717
  S         3.5275803471        1.8609814120       37.7086911145
  C         3.8941852598       -1.0548873267       37.5607242641
  H         1.5158361843       -0.0535783165       18.3968998755
  H         2.2766100247        0.9516532706       17.2025725676
  C         3.1477737690       -0.9583671617       17.6334416860
  H        15.5637803828        1.1456900142       21.7889750588
  H        15.0599352606        0.3994239118       23.0147042863
  C        16.9237822604        1.3173212629       23.4599726274
  H        10.4827846416        9.2308945779       13.4371438950
  C        11.5017865787        7.9097656898       12.2032097057
  H         3.0245238236       -0.7615743430       38.0819022725
  H         3.5661124162       -2.0309285400       37.3017102543
  C         5.1763805639       -1.1362822123       38.3918022160
  H         4.0795601563       -1.1503431892       18.1550746057
  H         3.5886092187       -0.8516747588       16.6575658564
  C         2.3038014712       -2.2578974514       17.6728457510
  H        16.8375978992        1.9816580299       24.3297428403
  H        17.1378672679        0.3700005708       23.8181754268
  C        18.0445803178        1.7353963029       22.4421009502
  S        12.2088038790        6.3525517722       11.7858668662
  C        11.6035717075        8.9665220190       11.2015236412
  H         5.0346246075       -0.7920392393       39.4296059890
  H         5.5680067346       -2.1391371578       38.4287566647
  H         5.7974670431       -0.5194679604       37.8517091960
  H         1.8288811115       -2.4327578395       18.6384607892
  H         2.9723870460       -3.0865535669       17.5500420154
  H         1.5895799433       -2.2788265104       16.9200209923
  H        18.9022012056        2.1081224167       22.9859499004
  H        17.7381040552        2.6283463624       21.8619890731
  H        18.4462903056        0.9027256737       21.8505934150
  C        12.2610469120        7.0522984987       10.1707418348
  N        12.1420330991        8.3906012187       10.0949913710
  O        11.2161828337       10.1762802911       11.3187316314
  S        13.2179682628        6.2585700056        9.0107026371
  C        12.0944008614        9.1941975826        8.8560399253
  H        12.5099889120       10.1535640445        9.1334040198
  H        12.7001388652        8.8458962637        8.0364052161
  C        10.6228500061        9.2021969524        8.4303767933
  H        10.5616906991        9.9119332499        7.6659216896
  H        10.3312040833        8.3024524406        7.8366144984
  H         9.7751940477        9.3325679362        9.1599538008
  H        21.5512926188       11.5106597881        4.3545622390
  C        21.9812805905       10.4873958776        4.4441946109
  H        21.1903184054        9.7983052493        4.3840388440
  C        22.8660684820       10.1465694844        5.6465093541
  C        22.6943218229       10.2969431329        3.0966693984
  C        22.0464677689       10.4559681733        6.8444573460
  H        23.2997738108        9.1491528284        5.7713170317
  H        23.7003858862       10.8665511223        5.5985791820
  H        23.3185330868       11.1099469020        2.8295874325
  H        21.9400588417       10.2485463788        2.2718957782
  H        23.3482692442        9.4108937934        3.2186740658
  C        21.1323896067        9.3333378587        7.3580266989
  H        22.5456998347       10.8058383514        7.7523772952
  H        21.5357783486       11.3671976538        6.5353534370
  C        20.2550963123        9.6664003940        8.5614383428
  H        21.7019825544        8.4742135570        7.6867226911
  H        20.5369513342        9.0310588554        6.5127366140
  C        19.0055470531       10.5267689852        8.2948864177
  H        20.7393966090       10.1136319224        9.3696663186
  H        19.9356276405        8.6900205042        9.0623781866
  C        17.9708059746        9.7273943041        7.4345540299
  H        18.6616669165       11.0159808028        9.2469558095
  H        19.3333647301       11.4143195886        7.7024490938
  C        16.7057170466       10.6010855348        7.2057042648
  H        17.6191720909        8.7788472068        7.9380399679
  H        18.4812123542        9.3694800588        6.4987119044
  C        17.0632472508       11.9079285579        6.4835298011
  C        16.2307780876       11.4332304042        8.3891366138
  C        15.5558951666        9.9055276066        6.4524473632
  C        16.7898433742       13.0756341180        7.1644144880
  C        17.6550629727       12.2276949328        5.2645554080
  C        16.2937622291       12.7907567701        8.3753386968
  C        15.8505801988       10.8138410074        9.5279044975
  H        15.8685014796        9.2884167133        5.6224534618
  H        15.1024496759        9.1785055728        7.1602966214
  C        14.4714253217       10.8545904519        6.0475089239
  S        17.3548628296       14.4789175212        6.4350144470
  C        17.7699793844       13.5761351745        5.0239817098
  H        17.8980170936       11.3780059253        4.5382808949
  C        15.7730487659       13.3968034627        9.4974555912
  H        15.9614633078        9.7628117742        9.5610149710
  C        15.4561082343       11.4505994000       10.6718395650
  H        14.7235594058       11.8582386106        5.6558017314
  H        13.8215560291       11.1583170238        6.9442102621
  C        13.4267163244       10.2409921189        5.1022081464
  C        18.2341881204       14.2492442765        3.7223909638
  C        15.4620220576       12.7644112427       10.7123538736
  H        15.8053181554       14.4532027662        9.3890820666
  C        15.0572061263       11.0808569090       11.9037044394
  H        12.4185445381       10.6568943512        5.2699250602
  H        13.2479647937        9.2463433014        5.4667174430
  C        13.8264701132       10.3346317585        3.5972761113
  C        18.1487819789       15.6099615329        3.4226733903
  C        18.6056609980       13.3355296867        2.6186043146
  C        15.0477581746       13.5023098741       11.9235572884
  C        14.7408926325       12.2041519160       12.6666403601
  S        14.7584253262        9.6692468205       12.7533329837
  H        14.8886814041        9.9317011725        3.4887225854
  H        13.8931787711       11.3791779148        3.3512036216
  C        12.7926870672        9.7147523159        2.5496013657
  N        17.6806188343       16.6669906036        4.2659903369
  C        18.4386314123       16.1221686077        2.1862199929
  C        18.8890104124       13.8932487087        1.3524218910
  H        18.7183333843       12.2639992500        2.7257159518
  C        13.7193775728       14.2110202944       11.7028688841
  C        16.0901991925       14.2995669919       12.6686321352
  C        14.4045774887       11.9137171122       13.9883018220
  C        14.3910615190       10.5665439162       14.2109158933
  H        12.8246831950        8.6908551516        2.6870586959
  H        11.8373731381       10.1828718046        2.8050327169
  C        13.3388576216       10.0289432938        1.1693557455
  S        17.8435682141       18.1493853766        3.5415454879
  N        18.2362704430       17.4963870240        2.0921910643
  C        18.7082980994       15.3701370001        1.0012710191
  H        19.1695867983       13.0908064395        0.7139362145
  H        13.8380000014       14.9728360968       10.9049735607
  H        13.4000486211       14.6586225050       12.6310697980
  C        12.5748740255       13.3396180139       11.2571959809
  H        16.2730872051       15.3209169528       12.1465162396
  H        15.6787842970       14.5048908704       13.7045710982
  C        17.4471183605       13.5658830500       12.7732451483
  H        14.2153716114       12.7411561227       14.6317419445
  C        14.0983032460        9.8629332506       15.4596844088
  H        14.4112100579        9.9948681539        1.2481042109
  H        13.1772555156       11.0740179207        0.7402665791
  C        12.8091443743        9.1404199933        0.0752884239
  C        18.9263649676       16.0454724830       -0.2178272969
  H        12.8221734717       12.6624653236       10.3836183491
  H        12.1975289251       12.7835031742       12.1269378815
  C        11.3998682247       14.2572225762       10.8730970290
  H        17.8667518028       13.5081646531       11.7538595261
  H        17.3331961767       12.5534769335       13.1428943827
  C        18.3851936423       14.4236559520       13.6142748407
  C        13.8652975517        8.4714919251       15.5694122988
  C        13.9398505651       10.5832943879       16.7519258399
  H        13.3470478644        8.1708049950        0.1377406785
  H        11.7446214220        9.1112242879        0.1439419065
  C        13.1483859980        9.7650849321       -1.2648236219
  H        18.6827903866       17.0853011588       -0.1839111766
  C        19.1464069723       15.5261132552       -1.4660005219
  H        11.4790374932       14.8301784234        9.9048156968
  H        11.3135142776       15.0566164725       11.6459405176
  C        10.1357882195       13.4457385794       10.9786332281
  H        18.6266586047       15.3106667649       12.9570521692
  H        17.9717223531       14.6196839567       14.6053112137
  C        19.6823874607       13.6808500512       13.9466755951
  N        13.9785639102        7.5037149282       14.5249283345
  C        13.4693207765        7.7561674054       16.7492007754
  C        13.4102755798        9.9402034393       17.8721490034
  H        14.0154121450       11.6376377617       16.8425486623
  H        12.8280655297       10.8243531368       -1.3621297230
  H        12.5302278548        9.1749329178       -2.0645401228
  H        14.2256127039        9.6808834199       -1.5065348212
  S        19.4625932689       13.8707957632       -1.8730619094
  C        19.3453352222       16.4588096960       -2.5898668047
  H        10.2579135175       12.4727049923       11.3588563958
  H         9.4632789331       13.9481440967       11.7168879122
  C         9.5544154427       13.2220730378        9.5606444162
  H        19.8913247061       12.9630911444       13.2344822732
  H        19.6192731447       13.2043104246       14.9858447545
  C        20.8026874353       14.7070092912       13.9000502576
  S        13.7353223317        5.9825167398       15.1022984273
  N        13.4189767805        6.3362100363       16.6198216941
  C        13.2396225899        8.4038223486       17.9511897200
  H        13.3385187520       10.5059368101       18.8008306318
  C        19.7689798554       14.4344488179       -3.4716002576
  N        19.7521248610       15.7606580778       -3.6506023354
  O        19.2260571403       17.7247397956       -2.5032030983
  H         9.8155833575       14.0607614839        8.8749606364
  H         9.9913399069       12.3183725497        9.0858173980
  C         8.0894353127       12.7728010389        9.5657348185
  H        21.6093837233       14.0319856306       13.7922671365
  H        20.6687612762       15.3031529724       13.0255294365
  C        20.8323402930       15.5702333260       15.2106044885
  C        12.9634789920        7.5472506273       19.0898802701
  S        19.9587952822       13.3805130569       -4.8238608739
  C        19.8613824590       16.4053770138       -4.9472358992
  H         7.8392540534       12.4900863923        8.5372855976
  H         7.9148891465       11.8817900120       10.0837710756
  C         7.1150167705       13.9062646278        9.8179110422
  H        21.2515909259       14.8868711658       15.9661623947
  H        19.9252195486       15.9222023476       15.5492705299
  C        21.7933133375       16.7708977737       15.2090361153
  H        13.3262954828        6.5118767825       18.9832584860
  C        12.4135820813        7.8592732633       20.3042225778
  H        20.6052562050       15.8856922212       -5.5206620019
  H        20.3705284414       17.3337403540       -4.7229699977
  C        18.4585267378       16.6023810139       -5.6040101851
  H         7.3303326720       14.6800982164        9.0958007309
  H         7.3640891707       14.2619188485       10.8193134213
  C         5.7222677238       13.3566961797        9.8689811472
  H        21.9496195991       17.1181441490       16.2394041511
  H        22.7467140401       16.3590248792       14.8248354317
  C        21.3185827777       17.7497746683       14.1802385265
  S        11.9737793720        9.4234938161       20.8427110546
  C        12.2185388347        6.7671758217       21.2370072464
  H        18.5287327838       17.2981003608       -6.4781083431
  H        17.8062927779       17.1187732389       -4.9209579389
  H        17.9574690275       15.6424720467       -5.7895361293
  H         4.9493566562       13.9905965839       10.3480207802
  H         5.3979673278       13.1379306448        8.8799260654
  H         5.8184991164       12.3971705124       10.4001445456
  H        21.9736931225       17.6819365884       13.3208218941
  H        20.2952537206       17.7024756509       13.7539367461
  H        21.4177392331       18.7711706180       14.5466679300
  C        11.6285417911        8.6311843431       22.3604069088
  N        11.7614655659        7.2687713648       22.4018879308
  O        12.5242970940        5.6080603991       20.9976817803
  S        10.8046105706        9.5041735571       23.7252568948
  C        11.6990332577        6.5353542700       23.6742437638
  H        11.3959129620        5.5459991123       23.5079267645
  H        11.0022198272        7.0029964219       24.3721324683
  C        13.0856652910        6.5593181527       24.3291555497
  H        13.7530424646        5.7639887152       23.9576603650
  H        12.9726376208        6.4805874933       25.3634537353
  H        13.5460055424        7.4968607576       24.1642051465
