352
 i =    55000, time =    55000.000, E =        25.0708321635
  H        12.2904336250        5.4101622617       32.4730885872
  C        11.2637058996        5.8099448125       32.3818527003
  H        10.7566673654        4.8363884234       32.1594729299
  C        10.9923673623        6.7172725683       31.1876044706
  C        10.6836518522        6.3406891002       33.6918401974
  C        11.4856179453        6.1319815863       29.8370046066
  H        10.0163539478        7.1464139879       31.1409558433
  H        11.6125693339        7.5783072387       31.2907896448
  H        10.2130869569        5.5551890701       34.2967575862
  H        11.4816531970        6.8248976611       34.2207307459
  H         9.8218500043        6.9914018911       33.4929225104
  C        10.4147846931        5.4360296412       29.0234882298
  H        12.3807235695        5.5774941899       29.9351598184
  H        11.6961409703        6.9620840468       29.1195802390
  C        10.7450568166        5.4786317529       27.5556335176
  H         9.9966877164        4.4505267941       29.2957062585
  H         9.4782001523        6.0327454888       29.0793838094
  C         9.7280681303        4.7442090112       26.6363031835
  H        11.6127729680        4.8144226310       27.3975544038
  H        10.8872203679        6.4815153220       27.1592877996
  C         8.5652573684        5.6308164916       26.3124414245
  H        10.2204945063        4.4351194337       25.7441511731
  H         9.3454943960        3.8258353457       27.2203120110
  C         7.3856688957        4.8859535946       25.6856484600
  H         8.2586192783        6.1263548218       27.2664212041
  H         8.8389877721        6.5277646826       25.7621125266
  C         6.9882388936        3.5635813483       26.3799131910
  C         7.7112874396        4.2350803656       24.3595814568
  C         6.2591978796        5.9263817341       25.3776441677
  C         7.2494417167        2.4609942667       25.5567558394
  C         6.4385028740        3.2071639757       27.6352774751
  C         7.7210828745        2.8960731581       24.3203912360
  C         8.2878772120        4.8761060027       23.2728866921
  H         6.6417333617        6.6848722309       24.6825775744
  H         6.0033532493        6.4969061464       26.3371293270
  C         4.9530238030        5.2685491178       24.8875146187
  S         6.8345406664        0.9295340026       26.3478715729
  C         6.2733211392        1.8341305493       27.8064351661
  H         6.2519052869        4.0338147960       28.3657098694
  C         8.2022608291        2.2678429116       23.1893826550
  H         8.4106259901        5.9242264042       23.3751786277
  C         8.6419203048        4.3153842571       22.0633909003
  H         5.1035128890        5.1331132103       23.7866462281
  H         4.8139065272        4.3333839591       25.4670372077
  C         3.7930286856        6.2283388084       24.8387600973
  C         5.8052956151        1.1406198017       29.0328124953
  C         8.6094273674        2.9538148585       22.0571994888
  H         8.1588246806        1.1364984434       23.1505547278
  C         9.1623950278        4.7044584965       20.8752126556
  H         3.1048794842        5.7699777291       24.0989564345
  H         3.9663053876        7.2737012205       24.4834600220
  C         2.9261407057        6.4385619840       26.0937771150
  C         5.8671687888       -0.2577388024       29.2784383583
  C         5.2210259661        2.0337758100       30.0911013986
  C         9.0251667467        2.2647830209       20.8397256293
  C         9.3847827049        3.5874153475       20.1034229711
  S         9.4101243695        6.1864341041       20.0282137957
  H         2.0618655761        7.1043545301       25.8721050794
  H         3.5354727472        6.8185982174       26.9496169364
  C         2.2660312072        5.1002719121       26.5884537463
  N         6.1587038082       -1.2328503961       28.3405292222
  C         5.6267127909       -0.7450673870       30.5760529344
  C         4.8919477205        1.4588810414       31.3430567282
  H         4.9978156534        3.1130790352       29.9677069869
  C         7.8925490785        1.6311192739       19.9869200630
  C        10.1912166707        1.3245470314       20.9417909379
  C         9.6765057582        3.9671585207       18.7564999950
  C         9.6056235462        5.3085364178       18.5231990998
  H         1.5815526451        4.7993705939       25.7776927701
  H         2.9093607749        4.2225399197       26.6762239571
  C         1.4158892956        5.3552366106       27.8014710651
  S         6.0363278113       -2.6641255591       29.0731540423
  N         5.6547634401       -2.1646920121       30.5876901398
  C         5.1855742916        0.0479426453       31.6736051152
  H         4.3073698410        2.1082061698       32.0237562793
  H         7.6089852818        0.7359225760       20.5268483809
  H         8.3911628453        1.3108398940       19.0182750021
  C         6.6515856105        2.5992534823       19.6944115129
  H        10.3117019474        1.0101866226       19.8718380756
  H         9.9221171762        0.5508891620       21.4912307684
  C        11.5520481225        1.9126007080       21.3707121325
  H         9.9157581747        3.1906718746       18.0391401869
  C        10.0614871226        6.0853471324       17.2818985734
  H         0.7096363375        4.5901202531       27.8140961531
  H         0.8676493052        6.2911232648       27.7024547712
  C         2.2778946027        5.6442539235       29.0712182109
  C         4.8622399511       -0.6495424067       32.9222130121
  H         6.8778800776        3.3997575275       18.9791263701
  H         6.2895403453        3.0778100581       20.6075497397
  C         5.5255495781        1.7955799457       19.0736616273
  H        11.3261404411        2.2524939748       22.3721308780
  H        11.8538306198        2.7367971216       20.6926587671
  C        12.7167107212        0.9122910682       21.4937681256
  C        10.2043807444        7.4920525859       17.1794636147
  C        10.4474266021        5.3213618890       16.0090772877
  H         3.0120797272        4.8617948096       29.1605100252
  H         2.9153183308        6.5147534925       29.0651436059
  C         1.3486919008        5.5108958890       30.3375832010
  H         5.1497688885       -1.6823546790       32.9010134010
  C         4.6367183416       -0.1648158557       34.1942386340
  H         4.8456190639        1.4629719040       19.7831135036
  H         6.0285461401        0.9410022499       18.6537160631
  C         4.6373443521        2.5189164146       18.0199856353
  H        12.5353382344        0.3107720750       22.4051211039
  H        12.9415738246        0.2718802444       20.6354747057
  C        14.0125866595        1.7544659455       21.6410306571
  N         9.8224823564        8.4536928321       18.1917213411
  C        10.5124553020        8.1135876298       15.9877353379
  C        10.6334860286        5.9402624931       14.8596585846
  H        10.3240921325        4.2765929426       16.0633810481
  H         0.7523716415        4.5727377886       30.3216923461
  H         2.0420055027        5.5429669846       31.2053945759
  H         0.6560299747        6.3258904826       30.5519539676
  S         4.4045809868        1.4579856322       34.6281077289
  C         4.4634270842       -1.1180924150       35.2708695526
  H         4.3364695847        3.5842946418       18.2302752287
  H         5.3017849115        2.6120494478       17.1279666623
  C         3.3197693796        1.7233784657       17.8065976894
  H        13.9692692372        2.8330872006       21.4499848440
  H        14.8906852371        1.3210022411       21.2364349157
  C        14.3708593212        1.8576695160       23.1009124432
  S         9.8725664870        9.9164349681       17.5590911680
  N        10.4633008151        9.5072823408       16.0990345233
  C        10.6683543052        7.3998002305       14.7857755367
  H        10.7751646558        5.3691896337       13.9248848582
  C         4.1014792969        0.8822732154       36.2328668550
  N         4.1271614709       -0.4210958019       36.4010574620
  O         4.6686903160       -2.3200725700       35.1523190800
  H         2.8380381080        2.3053007881       17.0609253399
  H         2.7451900364        1.7480661872       18.7618540439
  C         3.4349406050        0.2862682999       17.2923677849
  H        13.6173447788        2.4079740713       23.6451650507
  H        14.4319977086        0.8100827745       23.4405672760
  C        15.6617978451        2.5850941928       23.3377375371
  C        11.1100446028        8.1457195857       13.5993304660
  S         3.8099862242        1.9677782620       37.5709669175
  C         4.1399274450       -1.1121345726       37.6502961358
  H         3.2039433668        0.2464016137       16.2055852870
  H         4.4391216730        0.0456620250       17.4334871026
  C         2.4983036583       -0.6149521516       17.9535156749
  H        15.8379760141        2.7650292613       24.3742038031
  H        15.6127097312        3.6278852856       22.9400431627
  C        16.8337400307        1.8776746725       22.6987407894
  H        11.0397851783        9.1888673296       13.7674593047
  C        11.6034740936        7.8340928981       12.3343138362
  H         3.4152294212       -0.6378656303       38.3211245378
  H         3.8514371753       -2.1725019654       37.6206281976
  C         5.5941023326       -1.2213503109       38.1408109560
  H         1.5190279339       -0.2329712237       18.0679670968
  H         2.9591049816       -0.7962602382       18.9138015995
  C         2.4982582973       -1.8914033572       17.1905964189
  H        16.6374304025        0.8351826638       22.8170197385
  H        16.8509458565        2.1671437348       21.6495640802
  C        18.1055988252        2.3301532314       23.3754003797
  S        12.0983809231        6.2608976988       11.6989599904
  C        11.6666121197        8.9484496143       11.3683574633
  H         6.2144753753       -0.4901359697       37.6938793133
  H         5.4814210978       -1.1412835572       39.2109661156
  H         6.0594810212       -2.2516235458       37.9618094583
  H         3.5043683619       -2.2464972598       16.8870851460
  H         1.8199864628       -1.8150438502       16.3714618972
  H         2.2065676140       -2.6204855789       17.9006380393
  H        18.0783417522        2.2787100519       24.4528116946
  H        18.3986080449        3.2865446627       23.0587566602
  H        19.0397201522        1.7448567424       23.0079807160
  C        12.2751006114        7.1886326766       10.1187684465
  N        12.1845862030        8.5511496488       10.2124916346
  O        11.3591635315       10.1096445334       11.6439556919
  S        12.8253665178        6.3641238996        8.6008866122
  C        12.2954228357        9.4449144855        9.0991390127
  H        12.7032085417       10.4186025214        9.2683467267
  H        13.0499407096        9.0696538962        8.3727942604
  C        10.9889499748        9.4733655792        8.3325331501
  H        10.1701888474        9.4423384395        9.0102242772
  H        10.9103369088       10.3691953710        7.7332683312
  H        11.0046552203        8.5509831600        7.7342339938
  H        22.8804966984       10.2926833567        3.2790164548
  C        22.1686035655       10.1749616364        4.1672874749
  H        22.0378426644       11.2167643197        4.4268051163
  C        22.7679545831        9.5254626241        5.4000249046
  C        20.9248289714        9.5468331445        3.7059667080
  C        21.9596340342        9.9175863470        6.6660452863
  H        23.0009914911        8.4737692716        5.2235166518
  H        23.8195862845        9.8804953147        5.5991093634
  H        19.9509010458        9.7931015259        4.1785675182
  H        21.0456629731        8.4653104745        3.8714978725
  H        20.8188940879        9.7800773383        2.6212530541
  C        21.1120546199        8.7053101041        7.0624486402
  H        22.7104429238       10.2716483766        7.3557507724
  H        21.4229490449       10.7388740229        6.3433314735
  C        20.1844130131        9.1694762199        8.1730203526
  H        21.7742648025        7.9947039082        7.4236901574
  H        20.5873368841        8.2477367345        6.1818219775
  C        19.0311361024       10.0842878754        7.7630249417
  H        20.7282602334        9.6933738113        9.0432379401
  H        19.8464422366        8.3129981840        8.6705831156
  C        17.7686090479        9.3866161541        7.2652118685
  H        18.8529406831       10.7046345197        8.6897460878
  H        19.3752875027       10.9041833108        7.0630041607
  C        16.5859300297       10.3700066518        7.0964750065
  H        17.3796470951        8.5983620560        7.9739224582
  H        17.9663291964        8.7035748106        6.3884102698
  C        16.9394745940       11.6707005096        6.4183814620
  C        16.2100923033       11.1102520159        8.3633169884
  C        15.4468815568        9.7396292443        6.2882795870
  C        16.7280796793       12.8367937083        7.1911650017
  C        17.4190371423       12.0453530807        5.1720604761
  C        16.3002179735       12.4807373250        8.4687645930
  C        15.9699454946       10.4526006502        9.6051176747
  H        15.8228479345        9.3436070102        5.3420014738
  H        15.1182055048        8.7537125851        6.7059201949
  C        14.1488306621       10.6062981311        6.1410338399
  S        17.1359800739       14.2999482642        6.3815292056
  C        17.6903305969       13.4097208895        4.9632275062
  H        17.6806987875       11.2476422367        4.4464495940
  C        16.0641722106       13.1273833817        9.6894436807
  H        15.9314204115        9.3739871652        9.5619973007
  C        15.6999519061       11.0267933574       10.7900285877
  H        14.2618447909       11.5468997652        5.6335967096
  H        13.8429220180       10.7811583275        7.1733685462
  C        13.0264409056        9.9383682617        5.2737210505
  C        18.1255201554       14.0419115620        3.6915829068
  C        15.7781640540       12.4144564761       10.8876714018
  H        16.0863828267       14.2127768295        9.7701684192
  C        15.3226229751       10.6263258071       11.9788619864
  H        12.1580370057       10.5624533069        5.3175066816
  H        12.5556804616        9.0040453440        5.6718106589
  C        13.5051271298        9.8254128222        3.8130639654
  C        18.1336525511       15.4027679623        3.4189994143
  C        18.4475792320       13.1702145868        2.5682032887
  C        15.5442900151       13.0884101153       12.1913398397
  C        15.2465383117       11.7323633243       12.8285053332
  S        14.9271348698        9.1150633184       12.6195825409
  H        14.3769273152        9.1421082111        3.8286226858
  H        13.9312778518       10.7707706013        3.4303364063
  C        12.3588425963        9.2298010130        2.9804152301
  N        17.8618977902       16.4338602610        4.3475526951
  C        18.4064145283       15.9019989066        2.1744167662
  C        18.7226560553       13.6663481371        1.3206316407
  H        18.5314487146       12.0845258539        2.7018948000
  C        14.1793863111       13.9472230266       12.1125243813
  C        16.8217036250       13.7679064581       12.7241582043
  C        14.8067212635       11.3166637862       14.1024995974
  C        14.5673645620        9.9750735185       14.1346765216
  H        11.9237153714        8.3992326157        3.4684237889
  H        11.7038520568        9.9930158467        2.7864343082
  C        12.7998093177        8.7912961178        1.5351660001
  S        17.9575065651       17.8970113923        3.6289522872
  N        18.2919173744       17.2945275004        2.1488781565
  C        18.7157372788       15.1531801796        1.0514396733
  H        18.9051192526       12.9654103460        0.5116441508
  H        14.3487224037       14.7916652439       11.3892547816
  H        14.0181653782       14.3274972664       13.1550357841
  C        12.8958123493       13.2058742365       11.6799451159
  H        17.2492200057       14.5030818725       11.9769141309
  H        16.5257538058       14.2812000626       13.6575511725
  C        17.9604152480       12.8377803457       13.1589570257
  H        14.6329633048       12.0051023972       14.8853288867
  C        14.1693139705        9.2062718470       15.3543906314
  H        11.9953123743        8.2669333323        1.1184241846
  H        13.6713708231        8.1313595876        1.5995259929
  C        13.1751968848       10.0743504247        0.7785195346
  C        19.0017172549       15.8710444188       -0.1536992797
  H        13.1116849138       12.4114980414       10.9716945152
  H        12.5653018538       12.6815658700       12.5508457918
  C        11.7347579823       13.9973125134       11.1948994243
  H        18.3508651407       12.3308310971       12.2378448659
  H        17.6545883113       12.0813076370       13.8819675985
  C        19.1296246516       13.6211874792       13.7236260969
  C        14.1414559827        7.8057843399       15.4897203196
  C        13.8360877240        9.9484703583       16.5937998482
  H        13.3122915764       10.9458231421        1.3692868484
  H        14.0758008649        9.7210941733        0.2668189634
  C        12.2098899059       10.3025315538       -0.4150864725
  H        18.8206082450       16.9523882642       -0.0427886564
  C        19.3178280802       15.4863963001       -1.4193991474
  H        11.9440115145       14.7484056348       10.5107063624
  H        11.5109118870       14.5728688216       12.1274118911
  C        10.5953828742       13.1516402454       10.7205878568
  H        19.9557262310       13.4169367996       13.0746152660
  H        18.8753619984       14.6669331986       13.5825108725
  C        19.4425675061       13.2555358891       15.1679231291
  N        14.3584483790        6.8816739993       14.4728299510
  C        13.7979929995        7.1438689535       16.6714383316
  C        13.5503542824        9.3273916847       17.7865401252
  H        13.8567154578       11.0547163785       16.6409527774
  H        12.0421707527        9.4283981438       -1.0155997948
  H        12.4076599346       11.1516800004       -1.0033361687
  H        11.2254996953       10.5886250784        0.0205651683
  S        19.7846556794       13.9638377131       -2.1022179638
  C        19.2662429756       16.6251602861       -2.4338516381
  H        10.9254151256       12.3836610540        9.9748211212
  H        10.2322579046       12.6668092599       11.6034063944
  C         9.4396153284       14.0355000493        9.9903843101
  H        19.3423201820       12.1495898918       15.2396843983
  H        18.6188933610       13.6484259051       15.7380302899
  C        20.8057661776       13.7621319927       15.5833979289
  S        14.3747427776        5.3631450702       15.0981666011
  N        13.7896571284        5.7183803762       16.5819763790
  C        13.4475898298        7.8545435698       17.8453925935
  H        13.3131831083        9.9774860030       18.5909785031
  C        19.7584029656       14.7758468951       -3.6936324689
  N        19.5504602291       16.1401039482       -3.6604174850
  O        19.2063965481       17.8603757768       -2.1646622443
  H         8.9116787689       14.7312221165       10.6760365034
  H         9.8045524421       14.7019963750        9.3062645798
  C         8.4449319625       13.1381863243        9.3031673626
  H        21.1064084100       13.1879069669       16.3856273674
  H        21.5967206540       13.7293086905       14.8398254917
  C        20.7124417706       15.2194159963       16.0811724292
  C        13.1300185276        7.1310633764       19.0122796406
  S        20.2342593112       14.1396468981       -5.2564618194
  C        19.3298924289       16.9251919718       -4.8784622729
  H         8.9320295912       12.8600440050        8.3600049185
  H         8.3690973615       12.2591110925        9.8058667186
  C         7.0086991096       13.6890961383        9.0382280896
  H        20.1709247712       15.2455783276       17.0041049532
  H        20.1464267335       15.7476976001       15.3000411762
  C        22.0714913241       15.9225709086       16.0892380419
  H        13.3233940075        6.0328743004       19.0346396600
  C        12.7306762945        7.5224570236       20.2731133647
  H        20.0338085829       16.6469958250       -5.6719956362
  H        19.6300658798       17.9982924317       -4.6480933006
  C        17.8557762230       17.0135446073       -5.3464028306
  H         6.5208213886       13.1677977978        8.2047038348
  H         7.1797735114       14.6787004104        8.6804066119
  C         6.1696077589       13.6812232227       10.3255981121
  H        22.4968391204       15.9172122203       17.1599764953
  H        22.7306987846       15.3799745967       15.4616688356
  C        21.9460252515       17.4183846680       15.7727868421
  S        12.1462001967        9.1085845890       20.7032352289
  C        12.5564455287        6.4653594170       21.2957136822
  H        17.6027821174       15.9714446427       -5.5141402921
  H        17.7916245179       17.5563596719       -6.2688203288
  H        17.2506594347       17.4680647435       -4.5296631032
  H         6.3745464337       14.6394805941       10.7847286914
  H         5.0914314136       13.6361677133       10.2319114305
  H         6.4107001142       12.8999894046       11.0730236117
  H        21.8005701516       17.6488954643       14.7100537598
  H        21.0528388191       17.7355255619       16.3027038749
  H        22.7726310340       17.9344477719       16.1850739915
  C        11.8182543063        8.3219759415       22.3168484492
  N        12.0651070614        7.0170298999       22.4270918285
  O        12.7613942398        5.2583645549       21.1967916070
  S        10.7521823833        9.0785024356       23.5166066660
  C        11.7444886841        6.2534016995       23.5947047086
  H        11.4174254596        5.2459824724       23.3094312189
  H        10.9114631448        6.6373360052       24.2627443966
  C        12.9382294081        6.2204556259       24.5413184564
  H        12.5812785912        5.8136359707       25.4590103071
  H        13.3396601646        7.2552228132       24.7593202253
  H        13.6825273111        5.5388613061       24.0918715481
