352
 i =    22900, time =    22900.000, E =        24.2140108870
  H        12.4534296219        6.9322863961       32.0622675661
  C        11.8595553291        6.0314304353       31.7238620180
  H        12.6047381763        5.3300173623       31.4384607427
  C        10.9922707248        6.4951068802       30.4728915876
  C        10.9822179488        5.5821738185       32.8648345386
  C        10.4930948486        5.2005467780       29.9028670564
  H        10.2276185802        7.2300675807       30.8420047313
  H        11.6713822197        7.0141698091       29.7774778841
  H        11.5381667950        5.8059564317       33.7968814901
  H        10.0322119916        6.1311374374       32.9524261020
  H        10.7783025396        4.4965708460       32.7902004591
  C         9.4422067838        5.4073509066       28.8276795926
  H        10.2114518147        4.6026887815       30.7058989282
  H        11.2814960564        4.6144905856       29.4620047633
  C        10.1848128809        5.4192548472       27.4526587526
  H         8.7471831437        4.6183443491       28.7335526911
  H         8.8965015478        6.3158005932       29.0483762692
  C         9.4459238063        4.8048297771       26.2810387781
  H        11.1876076597        4.8845786608       27.4310274458
  H        10.7659539718        6.2355775903       27.2731257501
  C         8.1944573186        5.6287665795       25.9528216629
  H        10.1238335024        4.5879875877       25.3905850588
  H         9.1573678387        3.8163515197       26.5978208173
  C         7.0119391967        4.9158018638       25.1911403373
  H         7.7791435695        5.9160548944       26.8520417812
  H         8.4097020243        6.5469381124       25.4319867356
  C         6.5819074988        3.5776038288       25.8277228783
  C         7.5713655897        4.2085077178       24.0004973914
  C         5.7766511853        5.8613123629       24.9928873650
  C         7.0266482584        2.4647633335       25.0862359484
  C         6.0317119827        3.1827687804       27.0676948648
  C         7.5888034883        2.8677050445       23.9100172767
  C         8.0482266170        4.9678530438       22.9331048026
  H         6.0492694868        6.6427602498       24.2812642901
  H         5.5717179685        6.2667678730       25.8908930866
  C         4.5018410991        5.2175218719       24.4618786415
  S         6.6476499926        0.9672734260       25.8411894115
  C         5.9542673392        1.8481388373       27.1800320857
  H         5.6895379004        4.0658895082       27.7442315298
  C         8.0805749810        2.3283024400       22.7521609305
  H         7.9832545111        6.0262745318       22.9649257086
  C         8.5122886616        4.4033139187       21.7890857264
  H         4.6737579903        4.7936285811       23.4701078284
  H         4.1765137644        4.4401113562       25.1669972795
  C         3.2679746536        6.1627254328       24.4320501701
  C         5.6406534595        1.1676699168       28.5018028693
  C         8.4822468431        3.0797079970       21.6399321335
  H         8.2562177935        1.2540416167       22.6717007458
  C         8.9654045340        4.8006945828       20.5601105555
  H         2.5335497840        5.8039039094       23.7423815449
  H         3.5879917774        7.0806087452       23.9792218415
  C         2.5937824382        6.5164038632       25.7581944600
  C         5.7666293237       -0.1983742115       28.7718625502
  C         5.3215224079        2.0782655145       29.6212742635
  C         8.9191177818        2.3499858080       20.4410184342
  C         9.2340267050        3.7153707861       19.7634716695
  S         9.0975022572        6.3209736603       19.7783467331
  H         1.8271459484        7.2757882101       25.5936152542
  H         3.3436463822        6.8329715015       26.4972441075
  C         1.8213311762        5.2881731317       26.3578305784
  N         6.0855170540       -1.2938532484       27.9291693974
  C         5.5825833691       -0.6546345720       30.0813129010
  C         5.1198967131        1.6299285615       30.8820870294
  H         5.2486856614        3.1501161544       29.4340943238
  C         7.8269246624        1.4564512618       19.7806033164
  C        10.2956852116        1.6276583105       20.5344422726
  C         9.5671836248        4.0304737642       18.4613348232
  C         9.5360163396        5.3997135695       18.2738786815
  H         1.2016303159        4.7000146181       25.6399904370
  H         2.5714856724        4.6311425545       26.7643898455
  C         1.0845909942        5.6078134206       27.5959167157
  S         6.5032967847       -2.5792895048       28.8602927121
  N         5.8384062936       -2.0233768022       30.1985661243
  C         5.1420989586        0.1504881341       31.1539662441
  H         4.9051853685        2.2512516046       31.7141553758
  H         7.8012992779        0.4767457152       20.2777274724
  H         8.2062769258        1.1696415014       18.8601793721
  C         6.4476277230        2.1065853110       19.7051149725
  H        10.4873283305        1.2228247051       19.5662340261
  H        10.1511905863        0.7301080334       21.1123244890
  C        11.4571940861        2.3630093602       21.2409636374
  H         9.8903024147        3.2096897396       17.7883593208
  C         9.8796842352        6.1093098199       17.0046554201
  H         0.0911035811        5.0775875431       27.4890117561
  H         0.9628710697        6.6248150394       27.5938692702
  C         2.0092366023        5.2820587785       28.8230624771
  C         4.9817336601       -0.4462761932       32.4308661035
  H         6.5700303853        2.9705393583       19.0338998963
  H         6.1115258976        2.5096776891       20.6876563785
  C         5.3914561373        1.2504266709       19.1557782685
  H        11.1990339854        2.8317767782       22.2264221292
  H        11.7029434659        3.2444460918       20.6327269101
  C        12.7239276705        1.5288751329       21.2887788314
  C         9.9172189511        7.4579475831       16.8170881089
  C        10.1440722263        5.2618698278       15.8149741801
  H         2.4327865500        4.2878824976       28.8990245620
  H         2.9832099846        5.7774166879       28.7471348079
  C         1.3372047646        5.7437976197       30.0977191435
  H         5.0248105151       -1.4881254876       32.3569994866
  C         4.6806137067       -0.0102319571       33.6491939813
  H         5.1338758648        0.5422319678       19.9170342596
  H         5.8673975564        0.6106998743       18.4055423958
  C         4.2434762016        1.9752355382       18.5714693999
  H        12.8443068570        0.8497583446       22.1410291298
  H        12.6994765442        0.8190877962       20.4039029257
  C        13.9156410714        2.3979568684       21.0928985232
  N         9.5278433488        8.3654470428       17.8041312952
  C        10.2576171180        8.1715805211       15.6343688678
  C        10.4497543564        5.9052279731       14.6346010369
  H        10.2074857622        4.1957268835       15.8492542983
  H         0.7953158520        6.5788471307       30.0308184999
  H         0.7216355199        4.8838869383       30.5015793314
  H         2.1337300280        5.7732412395       30.7650895076
  S         4.4275479597        1.5919494827       34.1639869583
  C         4.6435886633       -1.0683439044       34.6785469269
  H         4.0975817394        2.9380651528       19.0720258636
  H         4.5659159221        2.2881045060       17.5857268177
  C         2.9380698361        1.1619090947       18.4735761821
  H        13.7293693534        3.1843991602       20.3084716728
  H        14.6887807315        1.8806857309       20.4996532680
  C        14.5603109990        3.1037399954       22.2777326976
  S         9.5958247108        9.8759698058       17.1939116585
  N        10.1242822165        9.5310331335       15.7013601875
  C        10.6250044891        7.3960385861       14.4892697862
  H        10.7146268592        5.3067600783       13.7949677389
  C         4.2358233648        0.8955885588       35.7185493216
  N         4.3851264883       -0.4414319298       35.8415807405
  O         4.8133977024       -2.3244102727       34.4786510354
  H         2.1625723600        1.8004083452       18.0123978098
  H         2.5990100522        0.8851149461       19.4215156542
  C         2.9808099873       -0.1045396133       17.5679530506
  H        15.4289996697        3.6970696157       21.9428002315
  H        13.8431273783        3.7550335471       22.7801289232
  C        15.1377413454        2.1286314997       23.3275675456
  C        10.9739724511        8.1306420838       13.3187242475
  S         3.9647493038        1.8235770635       37.1488898563
  C         4.4071145760       -1.2334932332       37.0450426528
  H         2.7010341403        0.1859584479       16.5493987434
  H         4.0299373348       -0.5118504125       17.5842159823
  C         1.8829765042       -1.1703890696       17.9952373885
  H        15.1909153941        1.0997232362       23.0151676574
  H        14.4078335946        2.1439062054       24.1698600138
  C        16.3901678432        2.7828171252       23.9737582107
  H        10.7512386296        9.1680347140       13.2866788572
  C        11.4686409115        7.7664769931       12.1333551904
  H         3.7242707103       -0.6641244807       37.7014142194
  H         3.9371337333       -2.1437437138       36.9995808621
  C         5.9173854040       -1.3927811054       37.5223535787
  H         0.9034805370       -0.8200875900       18.2381979193
  H         2.2763085019       -1.6375370806       18.9273704398
  C         1.7108008773       -2.3997051280       17.0293142545
  H        16.1954479931        3.7795095662       24.2474067799
  H        16.5933336670        2.3564451235       24.9377040576
  C        17.5773486125        2.6033862197       23.0028775243
  S        11.9198117079        6.1972323893       11.6616414950
  C        11.5900750760        8.8456045066       11.0923410717
  H         6.0463938178       -0.8691398218       38.4269989843
  H         6.2808866887       -2.4373456058       37.5741743324
  H         6.4614886886       -0.8500596798       36.7436978430
  H         1.4276104068       -2.1249385911       16.0474550594
  H         1.0506207862       -3.1666694501       17.4011293807
  H         2.7259367732       -2.8753168153       16.9672740248
  H        18.4455831955        2.4867805649       23.6070440937
  H        17.6867729234        3.4720015414       22.3286409873
  H        17.3323630746        1.7559095495       22.4403322251
  C        12.3817754695        6.9858449859       10.1055842076
  N        12.2599785765        8.3472220807       10.0425787612
  O        11.2367154874       10.0423142601       11.1405220681
  S        12.9669468641        6.1090276724        8.7201500300
  C        12.5799685263        9.2471545883        8.8803075514
  H        12.7950506614       10.2224827843        9.2765218064
  H        13.4495719316        8.9021032460        8.3286934899
  C        11.5510101860        9.2273323183        7.8082167408
  H        10.6738743381        8.6179978116        8.1700360663
  H        11.1694749033       10.2512012393        7.5988643937
  H        11.9614397790        8.7473385969        7.0004183023
  H        20.8848996022       10.9453476245        3.1828592332
  C        21.6996702856       10.1489914457        3.2609506952
  H        21.2514020286        9.2604424738        3.5039158811
  C        22.5998404803       10.6087348300        4.3873504507
  C        22.5257632898        9.9327100305        1.9842452728
  C        21.8457928911       10.6956899069        5.7397684469
  H        23.5090080604        9.9977271461        4.4076681170
  H        22.8898177997       11.6229527243        4.2256780418
  H        21.9124156177        9.9656815058        1.0973838875
  H        22.9909608025        8.9376798875        2.0637541659
  H        23.3109225910       10.8100503423        1.9172720872
  C        21.4371311919        9.3254296651        6.3210307529
  H        22.5516199758       11.0939479518        6.4375652029
  H        21.0834345345       11.4260886250        5.6171673528
  C        20.6100766221        9.4428172635        7.6223371242
  H        22.1818524260        8.6423353535        6.5450573896
  H        20.7699382488        8.8317429005        5.5644654436
  C        19.2940554087       10.3348332666        7.5162179051
  H        21.0880646937        9.9440938547        8.4395548192
  H        20.2987493345        8.4634287943        7.8956954593
  C        18.0593587992        9.6069220554        6.9088614049
  H        19.0167846331       10.5732896636        8.5461541509
  H        19.5364644071       11.2589323267        7.0307064350
  C        16.7235288078       10.4872836279        6.7406738571
  H        17.8305197008        8.7585150647        7.6438315799
  H        18.4185103311        9.1649249147        5.9627826509
  C        17.1009106839       11.9025296274        6.1090850496
  C        16.1771389417       11.2106585179        7.9825648445
  C        15.5433940874        9.7581330113        5.9648733933
  C        16.7360744022       12.9646244399        6.8986018553
  C        17.7547497860       12.2636760146        4.9725764529
  C        16.1558260570       12.5574775501        8.0535809318
  C        15.7264019633       10.5721708553        9.1538613420
  H        16.0427184746        9.2131870080        5.1832792752
  H        15.0676810900        9.0638115935        6.6097628006
  C        14.5751603671       10.7701332151        5.2717489287
  S        17.2067340610       14.5033580627        6.2210942639
  C        17.7519414830       13.6378220621        4.8391961210
  H        18.0568975207       11.5785292009        4.2655800192
  C        15.8158368801       13.1682211909        9.2570215706
  H        15.6384024948        9.4783205838        9.0605500493
  C        15.3013528420       11.1241482870       10.3189284857
  H        15.0636045379       11.4147271593        4.5317951603
  H        14.2060356824       11.4156021217        6.1026042457
  C        13.3959643129       10.0652875614        4.5959176206
  C        18.2304400430       14.3713675655        3.5597457778
  C        15.3948902792       12.4872434697       10.3882069961
  H        15.9583564019       14.2233398098        9.2922083689
  C        14.9240858361       10.7729740238       11.5993819440
  H        12.6627714817       10.0887982853        5.3948414849
  H        13.7067401683        9.0477241614        4.6538108071
  C        12.9513728517       10.5082767710        3.1890335966
  C        18.2502260098       15.8187098185        3.4213345727
  C        18.7661015314       13.5606265376        2.4595850301
  C        15.0260103896       13.2401156013       11.6734973487
  C        14.8206186320       11.9012466675       12.3890601285
  S        14.5007146815        9.3488450420       12.3632086843
  H        13.6353831428       11.2990510021        2.9166766663
  H        12.0294490859       10.9887548255        3.2863245550
  C        13.0280953953        9.4476746068        2.1461887579
  N        17.7757706723       16.7853966903        4.3780222609
  C        18.4841890893       16.4143349163        2.2085856374
  C        18.8431074645       14.1955246787        1.1958547541
  H        18.7208209012       12.5331102788        2.4219837924
  C        13.6810170659       14.0596320912       11.5422101615
  C        16.1132631746       14.1169425057       12.3976164864
  C        14.4729477863       11.5173205369       13.6786465082
  C        14.2634826923       10.1759523710       13.8490419761
  H        13.9115246632        8.7323959216        2.3105983087
  H        12.1624738807        8.8207611206        2.0430888572
  C        12.9796533714       10.1221475652        0.7377857398
  S        17.7297605275       18.2453171408        3.6944468858
  N        18.3452406299       17.8225802947        2.1690590468
  C        18.7991022839       15.6530523162        1.0565593117
  H        19.1024642104       13.6049890243        0.3765642620
  H        13.7588015619       14.8357399214       10.8474809386
  H        13.4788936734       14.4272177931       12.5645444384
  C        12.5350583335       13.1029012684       11.1749017091
  H        16.3776657693       14.9415491042       11.7294297571
  H        15.7256899222       14.5304027342       13.3476131618
  C        17.3397394112       13.3154745110       12.8098611217
  H        14.2381407947       12.2738856825       14.4279022746
  C        13.8941663098        9.4315203099       15.1248514916
  H        13.7337655923       10.9032171626        0.6146881674
  H        12.0254586813       10.5484015772        0.5051469128
  C        13.2076612785        9.0829170439       -0.3675883038
  C        18.9730882674       16.3104115284       -0.1342856172
  H        12.8506287595       12.6627101167       10.2277850320
  H        12.3984697939       12.3941441902       11.9332243624
  C        11.2710884106       13.9292402184       11.0213631917
  H        17.5849930986       12.6794533342       11.9643878718
  H        17.1016996983       12.6757412805       13.6170262050
  C        18.5189270023       14.2517319821       13.1093399493
  C        13.8554962845        8.0239820289       15.2496987902
  C        13.7422671850       10.1788532675       16.4130637024
  H        14.2624260591        8.8745158118       -0.3321403362
  H        12.7387844530        8.2012047492        0.0274136381
  C        12.7002020510        9.5753824137       -1.6605757943
  H        18.9896084712       17.4171213555        0.0184390860
  C        19.2407744607       15.9520565379       -1.4545620960
  H        11.5143780956       14.7234194762       10.4055682896
  H        10.9968743986       14.2957131356       12.0107228297
  C        10.1972711715       13.0740539866       10.3464366156
  H        18.7928613553       14.6987704496       12.2089952561
  H        18.0662508215       15.0607984211       13.6866123296
  C        19.7217302540       13.7423856975       13.8690325633
  N        14.0289913567        7.0887285746       14.2323187255
  C        13.5051235091        7.4001755586       16.4417374179
  C        13.3419360189        9.5648683608       17.5532158876
  H        13.9141807234       11.2476266323       16.3636404409
  H        11.6469628094        9.5969906328       -1.6981682513
  H        13.0121171964        8.8720636826       -2.4520850302
  H        12.9679126881       10.6576394908       -1.8118018993
  S        19.5705232743       14.4252844699       -1.9849564714
  C        19.2739383138       17.0244574948       -2.4687635582
  H        10.6698375477       12.8087868175        9.4002743726
  H         9.9270989439       12.2446361497       11.0120217465
  C         8.8915796286       13.7983171334       10.2235901328
  H        20.0999374678       12.7620713023       13.5391522770
  H        19.4072309045       13.5156391628       14.8674608389
  C        20.7993755154       14.8279116662       13.8931505200
  S        13.9516004585        5.5817566165       14.8656818429
  N        13.5086783777        6.0010535647       16.3786490354
  C        13.1626984296        8.0825352605       17.6183588413
  H        13.2747482408       10.2668476998       18.3654770571
  C        19.6876494860       15.0950288576       -3.6303864595
  N        19.6165640207       16.4479577696       -3.6389773798
  O        19.0612444038       18.2223459406       -2.2712261149
  H         8.1991702524       13.6996028680       11.0950013298
  H         9.0482242399       14.9014675206        9.9274099060
  C         8.0558300263       13.1149923024        9.1786018636
  H        21.7202155424       14.3160386759       14.2532352634
  H        20.8931420220       15.1596038796       12.8459581094
  C        20.5296715438       16.1249882144       14.6810906043
  C        12.7445946017        7.3599978738       18.8262337761
  S        19.8194316807       14.3141904026       -5.1671526640
  C        19.4780584239       17.2339262317       -4.8809717217
  H         8.5819937677       13.2739732509        8.2195444420
  H         7.9177452810       12.0675795971        9.3237303275
  C         6.6005436882       13.6707403365        9.0440944948
  H        19.8323172003       15.9617262879       15.4964104241
  H        19.8495320670       16.6695607192       13.9778959763
  C        21.6689807232       17.0575233352       15.0038001882
  H        12.9508323837        6.2998294746       19.0068083870
  C        12.0830150302        7.8927089754       19.8991611729
  H        20.1367203302       16.8888484157       -5.6550214916
  H        19.7880821870       18.3185855618       -4.7017262889
  C        18.0806613026       17.1730423604       -5.3590712749
  H         6.0895359434       13.0708204947        8.2870499541
  H         6.4852034705       14.6656021797        8.5605443895
  C         5.6488553141       13.5064324318       10.2268505860
  H        22.2614442228       16.5841642211       15.8136134120
  H        22.3136324058       17.3091950633       14.1556920903
  C        21.0866345511       18.3743607319       15.6251050251
  S        11.4747162624        9.4543046586       20.0807564511
  C        12.0011482322        7.0331107378       21.1209691900
  H        17.7259571388       18.0221445568       -5.9965939905
  H        17.4390047113       17.1901774828       -4.4865523758
  H        17.9350438342       16.2031956421       -5.9040294924
  H         4.6284699863       13.8716956818        9.9983191543
  H         5.7687398956       12.5010988669       10.7831480718
  H         5.9487510452       14.2808343886       10.9730155367
  H        21.8213583980       19.0819846305       15.9687113612
  H        20.3651710383       18.9495004975       15.0689862994
  H        20.4917994127       18.0672806133       16.4671557210
  C        11.1462393525        8.9441387390       21.8364418417
  N        11.3850521544        7.6448721357       22.0985004776
  O        12.6820740811        5.9909919078       21.2283872525
  S        10.7550668315       10.0787725539       23.1201403330
  C        11.1633684464        7.0108971775       23.3665232182
  H        11.0077772623        5.9492698310       23.2089868898
  H        10.2262113543        7.4730258606       23.7612381377
  C        12.2965325657        7.3403385767       24.3585318855
  H        12.7288359825        6.3670336398       24.7879861768
  H        11.7708052144        7.8657402665       25.1255116588
  H        13.0942636937        7.9993782341       24.0541743967
