352
 i =    31200, time =    31200.000, E =        25.4671339867
  H        12.2417722946        5.2358476269       32.1115899611
  C        11.2973441278        5.7658585503       31.9687433716
  H        10.7103599674        4.9073461744       31.6847256336
  C        11.4790285191        6.6912414772       30.8208362256
  C        10.6938500620        6.3114705885       33.2895832569
  C        11.8829006440        5.9667349826       29.5391179324
  H        10.5707817788        7.2589953582       30.6201002857
  H        12.2378714533        7.4598105382       31.0082062334
  H         9.5792598777        6.4923871795       33.2871783132
  H        10.8295028483        5.6239721135       34.1924617426
  H        11.2160159332        7.2357828859       33.5105929541
  C        10.7440249767        5.3180262081       28.7232589334
  H        12.4801903899        5.1053362076       29.7850607130
  H        12.4281945332        6.6967291115       28.9672924696
  C        10.8860528125        5.6821823842       27.2648653299
  H        10.7788474935        4.2767872353       29.0082104563
  H         9.8290123199        5.7680320220       29.0604345535
  C         9.7141590769        5.1300809688       26.4918650252
  H        11.7378062947        5.0313571384       26.9747228411
  H        11.0777097098        6.7655600823       27.0597613755
  C         8.5011030988        6.0939815446       26.3197362572
  H        10.1166775955        4.8934827862       25.4790874256
  H         9.4435465971        4.1411857812       26.8534749668
  C         7.3070921979        5.4396185682       25.6100352366
  H         8.3752832021        6.6689136398       27.2084503473
  H         8.8566424920        6.8075840693       25.5347780169
  C         7.0004825979        4.0346721191       26.2564125866
  C         7.6949577032        4.7194452362       24.3223338523
  C         6.0295077093        6.3993511108       25.5939583022
  C         7.1499929116        2.9784477513       25.4048805409
  C         6.5716239086        3.7074583712       27.5474811458
  C         7.5782818507        3.3559725403       24.1728027519
  C         8.1787561828        5.4027387350       23.2151369632
  H         6.2883725639        7.4208195179       25.1359402340
  H         5.7406548591        6.6058286487       26.6709632427
  C         4.8674397107        5.7645346014       24.8438422347
  S         6.8624897083        1.4785315823       26.2181764789
  C         6.3790586401        2.3568046603       27.7121860751
  H         6.3448337841        4.4284793995       28.2596484105
  C         7.9780282568        2.8113689163       23.0303744826
  H         8.1710779011        6.5171979347       23.2370059902
  C         8.5432102632        4.7607179091       22.0192758143
  H         5.2768531414        5.6024216751       23.8451279594
  H         4.7465548033        4.7345907321       25.2021409395
  C         3.5520030519        6.5288955368       24.8486104598
  C         5.9226827070        1.6065170438       28.9561000034
  C         8.4635724358        3.4534914457       21.9197168214
  H         7.9589056654        1.7287518107       22.8658948866
  C         8.9847349438        5.0837732571       20.7735225050
  H         2.8974775012        5.9227965896       24.1108678267
  H         3.7916284706        7.4907418456       24.4149212409
  C         2.9069170939        6.6355911214       26.2258351319
  C         5.8993268000        0.2486730427       29.1058835318
  C         5.5850943261        2.4587003897       30.1045361580
  C         8.8286466563        2.7115706502       20.6687701964
  C         9.1080396061        3.9835313713       19.9113090286
  S         9.2160038482        6.6280579445       19.9019130338
  H         1.9264842772        7.1642210933       26.1534733142
  H         3.4757704025        7.3550245089       26.7810905730
  C         2.6168739628        5.2999379045       26.9630608603
  N         6.3199751276       -0.6146295844       28.1533098083
  C         5.6748246316       -0.3300309051       30.3542625609
  C         5.2934191093        1.9122524773       31.3357089798
  H         5.6177954834        3.5492851540       30.0233068860
  C         7.5756339319        2.0520369912       19.9735218782
  C        10.1015692652        1.8307854844       20.8873205797
  C         9.4802212922        4.4048689025       18.5949031618
  C         9.4912500533        5.7547440873       18.4591965637
  H         2.1582110560        4.6185249706       26.3004971342
  H         3.5389011885        4.8335899378       27.3055041335
  C         1.7676008197        5.4114349174       28.2217250653
  S         6.2168695640       -2.0843716208       28.7965059939
  N         5.7036868981       -1.6906340062       30.2930380280
  C         5.3384600811        0.4454479435       31.5099147119
  H         4.9293170163        2.6420335247       32.0725779399
  H         7.0049309980        1.4620164353       20.6546326891
  H         8.0743541587        1.3655575294       19.2416815078
  C         6.4637033779        2.9859667577       19.3456188375
  H        10.3342472914        1.1766630845       19.9896443449
  H         9.8423021095        1.1674881735       21.6732431294
  C        11.4176603535        2.5467882865       21.4080324651
  H         9.7906955647        3.6978982208       17.8870286521
  C         9.9273172443        6.4713104250       17.1564640823
  H         1.4812231327        4.4643816128       28.5460704862
  H         1.0408314330        6.1148948212       28.0869555388
  C         2.5794464712        5.8035455253       29.3320542076
  C         5.0606036435       -0.2390047413       32.7045904556
  H         6.8664124926        3.4979988282       18.4609479977
  H         6.1257665258        3.7296899489       20.0945028289
  C         5.2925762952        2.2561566178       18.8077835601
  H        11.3929014245        3.1613620482       22.3025082994
  H        11.6529183803        3.3758771564       20.7402466394
  C        12.6605514218        1.6861167744       21.4072375122
  C         9.9104273940        7.8727059713       16.9542195033
  C        10.2758921952        5.6136948044       15.9440925264
  H         3.2867396244        4.9850511723       29.6075984141
  H         3.2525708765        6.6805304956       29.2246935791
  C         1.9054709871        5.9933961080       30.5930984319
  H         5.0986134691       -1.2980902359       32.6110949295
  C         4.8211685918        0.1706429373       34.0104606998
  H         4.8044212123        1.7291696530       19.6280055364
  H         5.6387046211        1.3935483729       18.2094627628
  C         4.1945831421        3.0850163013       18.1174218027
  H        12.7592011097        1.1293175073       22.3310529422
  H        12.7038188605        1.0063837050       20.6305963174
  C        13.8962620729        2.5981076492       21.1469043716
  N         9.6624561852        8.8911894050       17.8958827168
  C        10.2205310760        8.4193073089       15.6807660996
  C        10.5005652658        6.1557919325       14.7044098906
  H        10.3540661361        4.4755467670       16.0504479365
  H         0.9810034787        6.4667310471       30.3038087949
  H         1.7662534988        5.1267259859       31.2691020337
  H         2.4191245993        6.7179000724       31.1587970230
  S         4.6765282992        1.7778882994       34.5237388646
  C         4.6355591510       -0.8588125671       35.0765117341
  H         3.9944088735        4.0087711522       18.6679237213
  H         4.4183436808        3.5269354159       17.1183359857
  C         2.9216881506        2.3487816570       17.9474138770
  H        13.7695946505        3.4398421366       20.4857745867
  H        14.5898959805        1.9008807868       20.7086120662
  C        14.4075941404        3.0065996538       22.5189704666
  S         9.7359435694       10.3513939936       17.1754306466
  N        10.1023992734        9.8354259493       15.6339660369
  C        10.6133014373        7.6093785787       14.5779407206
  H        10.7633927322        5.4938843371       13.9501423537
  C         4.3560730171        1.0601763469       36.1358537047
  N         4.2819976380       -0.2883906168       36.1932990076
  O         4.8258412285       -2.0526612729       34.9067318322
  H         2.1834957622        3.1343620002       17.5531158211
  H         2.5641440074        2.0774623707       18.8224890667
  C         3.0289785926        1.0704607076       17.0074928932
  H        14.9755188357        3.9413589327       22.3479657877
  H        13.5651336030        3.2619833121       23.1408838462
  C        15.1686282261        1.8621241982       23.2252382444
  C        10.9554963384        8.1408956986       13.3155823438
  S         3.8803442261        1.9448142841       37.6056452890
  C         4.0978297452       -1.0862653981       37.4600444942
  H         2.0354225926        0.9678349148       16.5658642123
  H         3.8093746901        1.1428463888       16.2064508433
  C         3.0605205620       -0.2886723534       17.8077718232
  H        15.1539273380        1.0085117455       22.5314632195
  H        14.5562782195        1.4849140679       24.0847122887
  C        16.5476690994        2.2795551852       23.7149297407
  H        10.6223856215        9.1209614903       13.2538745886
  C        11.6147245090        7.6995576583       12.2180347320
  H         3.5384013394       -0.5874572571       38.2179873704
  H         3.4905600161       -1.9945516528       37.2014761486
  C         5.4114480409       -1.3918306280       38.0748568668
  H         3.6834999307       -0.1833727032       18.6840417989
  H         3.6906036280       -1.1051824700       17.3128225867
  C         1.6475182596       -0.6534341778       18.3024070525
  H        16.5470508682        3.3955044181       23.7800073935
  H        16.7473889490        1.7345199713       24.6587546439
  C        17.5397176267        1.8247382930       22.6012790568
  S        12.3756058702        6.1826869548       12.0938051656
  C        11.7366984224        8.5869282840       11.0251559195
  H         6.1818516261       -1.7065132002       37.3991790201
  H         5.7106217417       -0.4848710579       38.5258111651
  H         5.2914274863       -2.1515093552       38.7648535493
  H         1.3283429244        0.0438646250       18.9961396496
  H         1.5367864766       -1.6516988838       18.7397979342
  H         0.9402703401       -0.6536887824       17.4873868355
  H        17.7213304207        2.6934879007       21.9487018510
  H        17.3314056342        0.9451717503       21.9756365786
  H        18.4954104716        1.7255825904       23.1191659464
  C        12.9451823178        6.7574613854       10.5693489531
  N        12.5853152091        7.9893325950       10.1777639931
  O        11.0413095834        9.5789463821       10.8654160502
  S        13.9494167086        5.7376276825        9.4940887675
  C        12.8318526776        8.5591159787        8.8478666404
  H        12.7337372761        9.6572756869        8.7411406331
  H        13.8240775583        8.3030854024        8.4987764960
  C        11.7613423249        8.0778764100        7.8539852736
  H        11.2686319533        8.9742499794        7.3816109144
  H        12.1680137434        7.3868367706        7.0620028080
  H        10.9300843419        7.6269219162        8.4274413573
  H        20.7975445727       11.2131371340        3.5009213972
  C        21.4143382636       10.3152692537        3.5715928381
  H        20.7264224172        9.5233041612        3.7951637831
  C        22.2680130914       10.4648387602        4.7801757432
  C        22.2833773104       10.2121732124        2.3239300681
  C        21.4830010515       10.8273363792        6.0178027132
  H        22.7939832986        9.5548452172        4.9772033461
  H        23.1624117254       11.0854909962        4.6531209178
  H        22.9245707727        9.3529619686        2.3594079806
  H        22.8996899747       11.0751435716        2.1823503527
  H        21.6991915358        9.8857320740        1.4922833489
  C        20.8767556564        9.5960135689        6.7449932741
  H        22.0942226089       11.3711193351        6.7386049905
  H        20.5999669848       11.4533633747        5.6853324091
  C        20.1149729053        9.8674538747        8.0873059381
  H        21.7140635230        8.9655049815        6.9247240163
  H        20.2314682508        9.1382088007        6.0275971054
  C        18.8673511132       10.6139746762        7.8746277245
  H        20.7381282375       10.4298254222        8.8162922655
  H        19.9042438344        8.9540679069        8.7179976968
  C        17.6859940691        9.7941038825        7.3905652645
  H        18.6545213102       11.0552986461        8.8031894850
  H        19.0633279187       11.4958526921        7.2734995417
  C        16.3648343480       10.6641587382        7.1969384190
  H        17.4411747414        9.0448071634        8.1068350443
  H        17.8725285398        9.3155021299        6.3995426489
  C        16.6611062400       12.0131082744        6.5176999518
  C        15.8467610219       11.3928602532        8.4025484815
  C        15.3579446002        9.8147680645        6.3779966287
  C        16.4711616150       13.0899566636        7.3528526399
  C        17.1644540868       12.3423227302        5.2205385684
  C        15.9289419219       12.7090840786        8.5822339777
  C        15.4619350235       10.6862735730        9.5583787295
  H        15.8029393729        9.4108366179        5.5062528052
  H        15.1248363870        8.9713248019        7.0364803630
  C        14.0795220465       10.5560980464        5.9881500340
  S        16.8360055466       14.5454524489        6.5343797910
  C        17.3404672996       13.6949752493        5.0944721922
  H        17.5285307222       11.5724094409        4.5994416770
  C        15.5442485983       13.3333528673        9.7362022253
  H        15.6039823124        9.6447881299        9.5192363526
  C        15.1731842174       11.2427212344       10.7468602986
  H        14.2485595565       11.5960190182        5.6203049257
  H        13.4654103907       10.7130352131        6.8852985899
  C        13.2957339046        9.8567594768        4.9316100634
  C        17.8844454339       14.3766378060        3.8122634799
  C        15.2032395875       12.5948476639       10.8669579101
  H        15.4046761900       14.3862349810        9.7657013456
  C        14.7412151937       10.7675133777       12.0006318710
  H        12.2520504063       10.0494906244        5.1862934897
  H        13.3912972074        8.7890542480        5.0496489441
  C        13.4549272835       10.3378255027        3.4491143918
  C        18.0234548698       15.7126865577        3.5677982657
  C        18.3576518977       13.4873472008        2.7198939610
  C        14.7212607183       13.2296963454       12.1676367229
  C        14.4685846440       11.7884537778       12.8003625985
  S        14.5299766572        9.2564449104       12.7286758889
  H        14.5131433358       10.5344617844        3.3030064929
  H        12.8240398487       11.2406729687        3.2588004669
  C        13.0769180539        9.2426240767        2.4667151729
  N        17.8156733550       16.6499583374        4.5515288337
  C        18.3568269472       16.1847836504        2.3597380444
  C        18.6511149881       13.9486639400        1.4053998648
  H        18.4167836185       12.4704105057        2.8054487794
  C        13.4860448328       14.1148206417       11.9621168236
  C        15.8358701285       13.9527299434       12.9156441358
  C        14.0416543877       11.4699167052       14.0845848984
  C        14.0161735583       10.1488662783       14.1784753907
  H        13.7628367657        8.3420982392        2.5534061895
  H        12.0253105380        8.9410311875        2.6070060243
  C        13.3300726557        9.7719871960        1.0661584430
  S        17.8333980964       18.0853094312        3.7708749075
  N        18.3620273084       17.5754071903        2.3363247603
  C        18.6451195343       15.4558556519        1.1873413186
  H        18.8159100042       13.2605466923        0.6065739237
  H        13.7037745800       14.8469564993       11.1234939481
  H        13.2190096328       14.6762162440       12.8386911725
  C        12.3288774892       13.2789341990       11.5133968388
  H        16.1544548734       14.7665014906       12.3884937911
  H        15.4148142437       14.2279223358       13.8604480947
  C        17.0636725453       13.0918319191       13.2550605072
  H        13.9641595937       12.2222533900       14.8368744544
  C        13.7689396779        9.3551747562       15.4474223654
  H        14.3781951956        9.5339463093        0.8186819332
  H        13.2842361262       10.8861578264        1.1103019268
  C        12.4545466785        9.1661401654       -0.0328966338
  C        18.7188753266       16.0871040918       -0.0451558288
  H        12.6146908389       12.7208695069       10.6683123743
  H        12.0049813571       12.5802845855       12.2905316924
  C        11.1520133705       14.1601503011       11.1729171790
  H        17.3319400481       12.3650945449       12.4394437924
  H        16.8469061031       12.4373800387       14.1094267249
  C        18.1797580784       14.0243659018       13.5784242864
  C        13.7001151674        7.9854217782       15.6599803099
  C        13.4823550961       10.1816369366       16.6406526822
  H        12.7958284056        8.1288550551       -0.1736364868
  H        11.4710977622        9.0305155585        0.2822347299
  C        12.4282843489        9.8984181615       -1.4381649755
  H        18.5059977707       17.1331290025        0.0148147593
  C        19.1401398462       15.5768680853       -1.2586143174
  H        11.3187244765       15.0563679631       10.5211756477
  H        10.7240094697       14.5138450265       12.1302522001
  C        10.0477069402       13.3444376148       10.5332081782
  H        18.5544255175       14.6259137137       12.7327719430
  H        17.7813267413       14.7125485834       14.3050968768
  C        19.3924249133       13.3498719970       14.3192625748
  N        14.0247742667        7.0523417235       14.6185305664
  C        13.4187819475        7.3873009688       16.8856942979
  C        13.2797327978        9.5684285803       17.9251242935
  H        13.3105349078       11.2279159161       16.6361551545
  H        12.0997946221       10.9268629964       -1.3003342003
  H        11.7324927965        9.3973656885       -2.0736055765
  H        13.4345810984        9.8091194024       -2.0088910310
  S        19.4970894036       13.9164710030       -1.6568443862
  C        19.3551409412       16.5048343673       -2.3781232572
  H        10.4940952169       12.5637446821        9.9360780224
  H         9.5214200903       12.7633727453       11.3144957796
  C         9.0673619567       13.9803401587        9.5654092883
  H        19.4117370951       12.3055863890       14.0644776862
  H        19.0772105256       13.3159732541       15.3416626946
  C        20.7623899114       14.1605404648       14.1962047069
  S        14.2550238508        5.6220145084       15.3598161990
  N        13.6202227181        5.9779360562       16.8127078713
  C        13.1157487236        8.1228153177       18.0985221537
  H        13.1536161669       10.1797945024       18.7866569939
  C        19.8763456023       14.4724357968       -3.2747447392
  N        19.8365880550       15.8186345784       -3.4505852188
  O        19.1961765356       17.7028345109       -2.3387259826
  H         8.7121727433       14.7531801440       10.2358607239
  H         9.5846510067       14.3861610917        8.7175655813
  C         8.0251901934       12.9782809381        9.0833971421
  H        21.6219020224       13.4791181217       14.3432461742
  H        20.9335946483       14.5012875770       13.2191158062
  C        20.8148862628       15.3770155690       15.0929433076
  C        12.7517215588        7.4337048901       19.3201194755
  S        20.4668761263       13.5108337830       -4.5579352132
  C        20.0320800761       16.4359629181       -4.7571675179
  H         8.4705498642       12.3385533262        8.2693259542
  H         7.6941788646       12.3565102158        9.9300122436
  C         6.7901782666       13.6022629353        8.5705887625
  H        21.4750877725       15.2204467255       15.9067424305
  H        19.8599470848       15.6438854674       15.4983457076
  C        21.2524605213       16.5950211392       14.3638510819
  H        13.0301484248        6.3938995517       19.3581871288
  C        12.2496826379        7.8941881235       20.4933889197
  H        20.9267165258       15.8910983020       -5.2294113981
  H        20.1807519805       17.5365363720       -4.6479655167
  C        18.7435960936       16.4881505044       -5.5048715455
  H         6.4445580777       13.2023811354        7.6366610520
  H         7.1961844086       14.5862907214        8.3291801795
  C         5.7274953972       13.4405025838        9.6476768990
  H        21.0482934526       16.5279448919       13.3235967519
  H        20.6103751142       17.3187708639       14.7850432301
  C        22.6008952149       17.2320851397       14.6937041528
  S        11.7432560922        9.4707062539       20.9184719493
  C        12.1805147331        6.9261048230       21.5917971675
  H        18.8226462804       16.2974364872       -6.5494201139
  H        18.2640721732       17.4225158139       -5.3604950708
  H        18.0373730927       15.7928687597       -5.1236096665
  H         6.1545380433       13.9858870952       10.5745658475
  H         4.8068304639       13.8716070239        9.2966300421
  H         5.5171521387       12.3925702532        9.8954624740
  H        23.4555057329       16.5057807839       14.8647676528
  H        22.9529976225       17.9423612922       13.9602164268
  H        22.4837484829       17.8157433995       15.5788428083
  C        11.5603322079        8.8785440860       22.5604023562
  N        11.9327476202        7.5748316446       22.7135380227
  O        12.4292126156        5.7244058037       21.4213259172
  S        10.9620999839        9.7244470155       23.9896720392
  C        11.8313404827        6.7255911163       23.9342733274
  H        10.9742591572        6.0930709320       23.7275106778
  H        11.5540540570        7.2966537111       24.7999508726
  C        13.0491670264        5.8528800478       24.2000142408
  H        13.3971328573        6.2060300746       25.1689186681
  H        13.8480298989        6.0107621264       23.5191737695
  H        12.8264069152        4.8697495387       24.2656500476
