352
 i =    66800, time =    66800.000, E =        24.9562557248
  H        10.3739754012        4.3574482799       31.3507697958
  C        10.7768924517        5.2708597122       31.8770358814
  H         9.8911135303        5.6002316590       32.3287156435
  C        11.3388806142        6.2148002922       30.8704373307
  C        11.6969014436        4.8730151757       33.0797151644
  C        12.1650047932        5.5663425033       29.7987451866
  H        10.4159179976        6.6146900321       30.3653350710
  H        11.7444038726        7.1514570065       31.2835013065
  H        11.1697230281        4.5256700612       33.9803221183
  H        12.4949061952        4.1188048102       32.9071220702
  H        12.1902638486        5.7486708387       33.4537002751
  C        11.3383235960        4.7836972456       28.6957726601
  H        12.9285782054        4.9202578791       30.1683651414
  H        12.7213131859        6.3467545152       29.2721483783
  C        10.3289582878        5.6905509541       27.9665376064
  H        12.2071539196        4.5174619521       28.0107479269
  H        10.8991648698        3.9023453546       29.2194270308
  C         9.6851701861        5.1287409278       26.6684099018
  H        10.7583075236        6.6764374599       27.7519121653
  H         9.3881341819        5.8150855804       28.5590056507
  C         8.4253085442        5.8461578802       26.1689113290
  H        10.3927225205        5.0483274346       25.8327644195
  H         9.4882608081        4.0987998579       26.8864930783
  C         7.4017862205        4.9965498850       25.2990671257
  H         7.7519919496        6.1409452312       27.0381435654
  H         8.5738037713        6.7695686533       25.6177029577
  C         7.2079006272        3.6569116173       26.0090493169
  C         8.0634142353        4.3012645061       24.0565930102
  C         6.1367219302        5.6696468353       24.7407392130
  C         7.5165623504        2.5682764177       25.2244820620
  C         6.7004463310        3.3350132158       27.2506128723
  C         8.0440925677        2.9058712294       23.9920580800
  C         8.5611213614        4.9917049358       22.9306051222
  H         5.6405071393        5.1184733649       23.9866190088
  H         6.4959867596        6.5910315298       24.3614106584
  C         4.9646103751        6.0783867004       25.7553292940
  S         7.2290111364        1.0700384588       26.0720125230
  C         6.5184291878        1.9791044447       27.4198336152
  H         6.4880160824        4.1254750843       27.9218703254
  C         8.4809381187        2.2892622444       22.8340518365
  H         8.6404984918        6.0470947571       23.0106571031
  C         8.8981937172        4.3732625383       21.7530646233
  H         4.7527331777        5.2307412616       26.4485579493
  H         5.4020794007        6.8995217950       26.4672330834
  C         3.7141254620        6.5924886012       24.9991298292
  C         6.1665850444        1.3043591446       28.6670780111
  C         8.9043010205        3.0406186112       21.6712945437
  H         8.3791494207        1.1811594312       22.7277578161
  C         9.2879256849        4.8723815701       20.5360836713
  H         3.4897056409        5.8924395188       24.2470840942
  H         4.0466310198        7.4317225615       24.4882314804
  C         2.5737649174        6.8669273175       25.9636500819
  C         6.2394634778       -0.0573608695       28.9413195768
  C         5.5983786295        2.0390335845       29.7776455702
  C         9.2925364504        2.3985826536       20.4196683100
  C         9.5994400252        3.8020552249       19.7580158497
  S         9.3535232253        6.4298584209       19.7224522339
  H         1.8312617852        7.5950325428       25.4447869338
  H         2.9017445109        7.4091464652       26.8452191803
  C         1.8691791966        5.5725498090       26.3619247348
  N         6.5209444734       -1.0076285606       27.9550191044
  C         5.9783550012       -0.6801311813       30.1384372547
  C         5.3950788246        1.5272009929       31.0108391448
  H         5.3313747524        3.1089387526       29.4794809253
  C         8.0723370432        1.6551842564       19.7467449935
  C        10.5573737211        1.5082425511       20.6530815590
  C        10.1617672040        4.2483013792       18.5731089702
  C        10.0068394346        5.6221691659       18.3442996632
  H         1.0216551371        5.2748488427       25.7599703503
  H         2.5865548493        4.7185526179       26.3866867571
  C         1.2945344672        5.7151476471       27.7245794241
  S         6.5158264975       -2.5139005079       28.5786007464
  N         6.1517054567       -2.0911651211       30.1257413342
  C         5.5937925538        0.0677124497       31.2815575931
  H         4.9876046903        2.2259881219       31.6981707632
  H         7.6627688138        0.8990650068       20.4235507154
  H         8.5385015859        1.0946938767       18.9830493686
  C         6.8881194060        2.5361132299       19.2865070045
  H        10.8786323535        1.0305556286       19.7087499751
  H        10.2758721085        0.6885852903       21.3342405904
  C        11.6994052102        2.2760153137       21.2957482922
  H        10.5698747504        3.4872822575       17.8837531298
  C        10.4421791809        6.4074654124       17.1437663567
  H         0.4190835315        4.9610897853       27.7007128310
  H         0.7473974248        6.5707532057       27.9370637509
  C         2.3487384008        5.4647605921       28.8395000467
  C         5.3877216400       -0.5691569607       32.5495951811
  H         7.0095696744        2.9625851424       18.3504393245
  H         6.7533519822        3.3898826878       19.9322295703
  C         5.5749275717        1.9390982467       19.3317522345
  H        11.4457510704        2.8981885791       22.1846795485
  H        11.9705391951        3.0759044155       20.5762326798
  C        12.9585077558        1.4275256589       21.7086117901
  C        10.5003103665        7.7766517283       17.0216909525
  C        10.8056724850        5.6411127422       15.8835234853
  H         2.8286542898        4.5306293624       28.5626892060
  H         3.0710146546        6.2465398444       28.7738900544
  C         1.8636566232        5.4081471698       30.2928275984
  H         5.5748675236       -1.6458167523       32.5049877901
  C         5.0561387899       -0.0840097543       33.7857695488
  H         4.8200461193        2.7617014176       19.4857067033
  H         5.4935039458        1.2422582294       20.2279599888
  C         5.2715352154        1.0226350270       18.1277191742
  H        12.6243378247        0.6402347793       22.4092824082
  H        13.2479017087        0.9063184334       20.7440319216
  C        14.1983747158        2.1527359043       22.2900108966
  N        10.2668259612        8.6861147383       18.0626843319
  C        10.8324340871        8.4634067805       15.8421804897
  C        11.0357108269        6.3341355540       14.6921942081
  H        10.8281414290        4.5910817561       15.8379060766
  H         0.7936409765        5.0610090090       30.3994814688
  H         2.2718222426        4.5385807688       30.7227981216
  H         2.1162303605        6.3123286379       30.8359184073
  S         4.5820549877        1.5169482420       34.3016034166
  C         5.0446652043       -1.0534092258       34.8716466015
  H         5.7792035847        1.2914848516       17.2405252290
  H         5.5209212102       -0.0114106495       18.4276108943
  C         3.8456019119        1.0495043417       17.7602655393
  H        13.8918215395        2.3717207381       23.3154662998
  H        14.3430071540        3.0898003179       21.7594958129
  C        15.4743739808        1.3421821846       22.1283143684
  S        10.5287758931       10.1233318766       17.5055540036
  N        10.9153569175        9.8373360575       15.9781622751
  C        11.0672070296        7.7907826177       14.6344523578
  H        11.1046234285        5.6728959616       13.7998205687
  C         4.3787608143        0.8385868826       35.8828782553
  N         4.7507332553       -0.4614170822       36.0012820054
  O         5.1668309915       -2.2631776103       34.6628069247
  H         3.7787383792        0.8955246149       16.6924370452
  H         3.4980294783        1.9837035715       17.9235928174
  C         2.9903362340        0.0665698164       18.5377098198
  H        15.4489505365        0.5922317775       22.8271588684
  H        15.4178098080        0.9425845757       21.1856823821
  C        16.7556153574        2.1333110839       22.3803484457
  C        11.4234749853        8.5097675655       13.4546012245
  S         4.1207778311        1.7831947057       37.2517541676
  C         4.8017643786       -1.1455835262       37.2763255661
  H         3.2243343761        0.1776272384       19.5726482273
  H         2.0390190860        0.4591933637       18.5135914404
  C         2.9381120318       -1.3731616426       18.0821232410
  H        16.6987441330        2.6685484487       23.3327092933
  H        16.9722721237        2.7425332110       21.5053650179
  C        17.7930225582        1.0892245399       22.5581035927
  H        11.1132509866        9.5417258436       13.5039935283
  C        12.1531252658        8.1694058297       12.3028696740
  H         3.9101493404       -0.8077167887       37.8611663632
  H         4.6834361585       -2.1960369529       37.0350587605
  C         6.1654683305       -1.1055045941       37.9131737244
  H         2.3894557949       -1.8712915309       18.8555798439
  H         3.9309837827       -1.8448055951       18.2032541764
  C         2.2940931343       -1.5349790766       16.6824631380
  H        17.3857928265        0.4869121532       23.4079361512
  H        17.8790189836        0.3636360758       21.7597517507
  C        19.1739066596        1.6198921751       22.6980713468
  S        12.7383007664        6.5903271002       11.8835266667
  C        12.2253495316        9.1637819612       11.2473232454
  H         6.3969349033       -0.0749292938       38.1524527043
  H         6.0776013733       -1.7846253426       38.7932839986
  H         6.7941124851       -1.4711294802       37.1465082592
  H         1.3632363812       -1.0020825210       16.6127739162
  H         2.1065703878       -2.5766613655       16.4617643872
  H         3.0353951822       -1.2187412035       15.8734048141
  H        19.3586715726        1.5962688099       23.7750555994
  H        19.2228334605        2.6660665984       22.2765711547
  H        19.8992811038        0.9785775945       22.2780340049
  C        13.0432623060        7.3508347417       10.2767965713
  N        12.7869848244        8.6684405104       10.1606268152
  O        11.7090865323       10.2820298419       11.3011184341
  S        13.9283722087        6.5667664286        8.9212045375
  C        12.7512293934        9.4462702919        8.9258741390
  H        12.9674078716       10.4526611106        9.0411434854
  H        13.5772618163        9.1211680909        8.2701489579
  C        11.4676307702        9.2151716084        8.0873613932
  H        10.7206304200        8.8445032193        8.6714836351
  H        11.3460399655       10.1843273489        7.6286282173
  H        11.7869339609        8.4102058507        7.3096538281
  H        22.2258935227        8.5704703261        3.5798732467
  C        22.5176036616        9.6370862860        3.2821255055
  H        23.3836868606        9.5589074186        2.6487513278
  C        23.0564384094       10.3530274194        4.4731777012
  C        21.4406926718       10.2672432273        2.4398332599
  C        22.0229042334       10.6069123067        5.5462711489
  H        23.8018345403        9.7075268814        4.9782451670
  H        23.4869623714       11.2978956963        4.1914450817
  H        21.8294729330       11.1883899605        2.0619324093
  H        20.5654395515       10.4113315503        3.0222811414
  H        21.2606112909        9.6767530843        1.5738973258
  C        21.2647054453        9.3275562444        5.8943461215
  H        22.5072854447       11.0065229979        6.4375763901
  H        21.3480522137       11.4032464576        5.2321595041
  C        20.6559357427        9.2359742551        7.3342029848
  H        21.9907846450        8.5791138008        5.8825771123
  H        20.4500592883        9.1695826818        5.1545118658
  C        19.4815489107       10.2006494299        7.4222382048
  H        21.3747113847        9.5083651330        8.1273825879
  H        20.1996087170        8.2648918381        7.5483101207
  C        18.1256695026        9.6112309039        7.0569596542
  H        19.4621089101       10.6946351803        8.4246984552
  H        19.7030820136       10.9773138816        6.7816795687
  C        16.9392362910       10.5757533655        6.8881813271
  H        17.8718735241        8.7905641392        7.7662210663
  H        18.3540150603        9.2075068480        6.0495160750
  C        17.3295622388       11.9443792309        6.3022841942
  C        16.6315369616       11.2108420393        8.2705127123
  C        15.7585503602        9.8175535504        6.2851022568
  C        17.1365793289       12.9996883398        7.1152327846
  C        17.7574545624       12.3524761504        5.0894697320
  C        16.6434030831       12.5956324474        8.3230985185
  C        16.2635279612       10.5692658764        9.4233701419
  H        16.1957330962        9.2432582193        5.4223640300
  H        15.4220985222        9.2117237521        7.0777863495
  C        14.6213609475       10.8087639892        5.8839664363
  S        17.5644099331       14.5382013828        6.4906141436
  C        17.9427780294       13.7037480932        4.9886326837
  H        17.8249926519       11.6220624781        4.3483424825
  C        16.2632916129       13.2540802704        9.4534219196
  H        16.3000554405        9.4699366088        9.3765406361
  C        15.9326545546       11.2321615741       10.5835189842
  H        15.0048908458       11.6406282595        5.2841582442
  H        14.3567173626       11.4087993005        6.8031579657
  C        13.4348630616       10.1008939549        5.2062334396
  C        18.2855488377       14.4189845905        3.6928121367
  C        15.9212424409       12.5818696389       10.6317186040
  H        16.1025103322       14.3453961547        9.4254223049
  C        15.5315659476       10.8978639965       11.8303428888
  H        12.6290611532       10.8354248242        5.0289963016
  H        13.1085516509        9.2182855851        5.7581243538
  C        13.9446546895        9.8091805163        3.7646207979
  C        18.2327856064       15.8006286688        3.4198563447
  C        18.6463569099       13.5159778616        2.4911246330
  C        15.4003997885       13.2768167850       11.9043036296
  C        15.1842755060       11.9568489106       12.5771663097
  S        15.2535751744        9.3458461375       12.5900248876
  H        14.4811993106        8.9174365315        3.8324078729
  H        14.6375576589       10.5964935854        3.3309397081
  C        12.6690569033        9.7896610975        2.8910716575
  N        17.9592208480       16.8018300925        4.4140886383
  C        18.5458554119       16.3128849128        2.1751078658
  C        18.8423483931       14.1049127409        1.2100351937
  H        18.7423557177       12.3702007918        2.5687538167
  C        14.1047639545       14.0262337379       11.6755236220
  C        16.4283503184       14.2323163150       12.6117895190
  C        14.8447032990       11.5428860864       13.8907882434
  C        14.7415535503       10.1902113702       13.9949015330
  H        11.8990748851        9.3219100917        3.5211794867
  H        12.3574908601       10.8545557950        2.6485411771
  C        12.9552994652        8.8561757049        1.6528947088
  S        18.1879114234       18.2476198393        3.7064860399
  N        18.5433724951       17.7109986016        2.2131328705
  C        18.9023575394       15.5187689883        1.0612078882
  H        19.1650823539       13.4433718427        0.4229713165
  H        14.1687802393       14.6742993594       10.7565924535
  H        13.8561798548       14.6129559555       12.4967397255
  C        12.8442035047       13.1993034222       11.2234709355
  H        16.4911556965       15.1433940238       11.9576690956
  H        15.9581134967       14.6064019998       13.5366833305
  C        17.6882311983       13.4445001725       12.9770354781
  H        14.6192607587       12.2722374597       14.7133686234
  C        14.3153204392        9.4251666807       15.2602209796
  H        12.1887963256        8.1226489071        1.5718575638
  H        13.8556809908        8.3718207329        2.0050064196
  C        13.1896620968        9.5682202206        0.3775405252
  C        19.0965247618       16.2153498084       -0.1527614557
  H        12.9006324559       12.5853498945       10.4066510625
  H        12.6073220923       12.5239059948       12.0386402247
  C        11.6974092334       14.1096841041       10.9406439609
  H        18.1803585770       13.0281951656       12.1367545499
  H        17.4803466940       12.6169111723       13.6443348017
  C        18.6170934516       14.4161652842       13.5775868344
  C        14.3409908614        8.0163268405       15.3815688822
  C        14.0349115221       10.1677423318       16.5195788400
  H        13.9005186588       10.3615100801        0.4584698273
  H        13.6346169991        8.9829370631       -0.4111254809
  C        11.8606083970       10.2465518265       -0.0257663893
  H        18.9256618564       17.3027659434       -0.1729810005
  C        19.5092551238       15.8176463352       -1.3974263506
  H        12.0023030569       14.7094368579       10.0824317107
  H        11.8191215705       14.8686946830       11.7492872475
  C        10.3769059877       13.2922116710       10.7736190015
  H        18.8766825042       15.0303797818       12.7807706103
  H        17.9870076948       14.9591683546       14.2444242001
  C        19.9177242156       13.9184986126       14.2731649848
  N        14.8403002347        7.1448430372       14.4132740440
  C        14.0515067360        7.3526571435       16.5717603326
  C        13.6558471835        9.4905120095       17.7603478901
  H        13.9291907628       11.2708204528       16.5007850670
  H        11.8574884513       11.2983331079       -0.1675714066
  H        11.0349249024       10.0623389888        0.6593043817
  H        11.5235359288        9.8184649103       -0.9474191803
  S        19.8475899212       14.2300925114       -1.9590021570
  C        19.3357152946       16.7978653408       -2.5068247469
  H        10.5449330302       12.3961398088       10.2480152296
  H         9.9373986376       13.0082430266       11.7322793478
  C         9.2970879002       14.1060410889       10.0836406506
  H        20.5223871999       13.2260517789       13.7144092390
  H        19.6900197421       13.3445479228       15.2122227703
  C        20.9731249480       14.9537909191       14.6259429760
  S        14.7962016217        5.6751320749       15.0835153820
  N        14.2272196338        5.9711029472       16.4405305238
  C        13.7197210353        7.9878030026       17.8323698571
  H        13.5455621389       10.0997046875       18.6755848227
  C        19.6926666476       14.8758544042       -3.5790718432
  N        19.5832044046       16.2228771619       -3.6974968110
  O        19.0893508377       17.9994102262       -2.4078528484
  H         8.6985541080       14.5083810472       10.9644249410
  H         9.7963652510       14.9383184239        9.5867851711
  C         8.4783811065       13.2663834044        9.0770829221
  H        20.4676352672       15.7313539689       15.2345569337
  H        21.7746733329       14.6137666244       15.2925528706
  C        21.6820028360       15.5746554670       13.4114262163
  C        13.4366872815        7.1707226212       18.9623590820
  S        20.1985484312       13.9404272674       -5.0148345202
  C        19.4163888432       16.9449506350       -4.9596687944
  H         9.2798207238       13.0129997821        8.3873019321
  H         8.1125938709       12.3855033839        9.5207885737
  C         7.3021397473       14.0868622761        8.4614878498
  H        20.9378883825       16.0704035466       12.7607778767
  H        22.1406189522       14.8658951305       12.7753562345
  C        22.7199270260       16.5777882436       13.8881147884
  H        13.5814669831        6.1165602435       18.8230766528
  C        12.9366741236        7.4068072541       20.2008868668
  H        19.9052610984       16.4931099808       -5.8408962188
  H        19.8519132291       17.8960854021       -4.7358518281
  C        17.9489901518       17.0636837425       -5.3167476859
  H         6.8457299187       13.6119494043        7.5828741480
  H         7.5235381623       15.0595607128        8.0669645485
  C         6.1628440717       14.1864948742        9.5100426525
  H        23.3417423047       16.0507340183       14.6638663115
  H        23.2344212431       16.9670731756       13.0080573494
  C        22.1740360071       17.8105071270       14.5976569560
  S        12.3079387764        8.8967300528       20.8387156788
  C        13.0281581838        6.3016153011       21.1482895480
  H        17.2318212391       17.4005089306       -4.5347015029
  H        17.5241614010       16.0523482689       -5.5670204442
  H        17.8721621144       17.7520452263       -6.0651301952
  H         5.6065081867       13.2559189431        9.6002084007
  H         6.5140325101       14.2974120363       10.5901393561
  H         5.3825131371       14.8275982107        9.2713906231
  H        21.6252869189       17.5505769729       15.4977782724
  H        22.9528123157       18.5802170423       14.7730223990
  H        21.3755351656       18.2675402984       13.9947465402
  C        11.8537028586        7.9055024965       22.2791807286
  N        12.3885685514        6.6592781871       22.2747441953
  O        13.6116335273        5.1752447330       20.9018076363
  S        11.0596148714        8.4581856196       23.7715601417
  C        12.3416455116        5.8620259134       23.3973657629
  H        12.4172024544        4.8201501958       23.0791627480
  H        11.3626510311        5.8855415083       23.8854607448
  C        13.4012765669        6.2193689864       24.3796447585
  H        13.9662957231        5.3042091310       24.4667781331
  H        13.0311499919        6.4936132784       25.3501775991
  H        14.0124614396        7.0112807084       23.9991870369
