352
 i =    78600, time =    78600.000, E =        24.9852874493
  H        10.1160237398        6.8705289107       31.5355925634
  C        11.1452181282        6.6465599389       31.7841918646
  H        11.5902186701        7.6573805551       31.8605612749
  C        11.7850169413        5.9777967152       30.5690178103
  C        11.3978878278        5.9379312901       33.0678868517
  C        10.7629556228        5.1602703854       29.7525637949
  H        12.1659551929        6.6406035167       29.7771940673
  H        12.6201702611        5.2817249422       30.7546192460
  H        12.3836262858        6.1449433314       33.4057205484
  H        10.8453896738        6.2534075996       33.9527821614
  H        11.1269141157        4.8981890641       33.0069661684
  C         9.8460205837        5.9649171339       28.9735848434
  H        10.1487289167        4.5783460906       30.4020806203
  H        11.2690308616        4.3642746388       29.2717964690
  C        10.1937538846        6.0819985203       27.5291534590
  H         8.9113356746        5.4710838760       29.0010470162
  H         9.5928200281        6.8489444961       29.4717838997
  C         9.3754218158        5.1220358685       26.6009086663
  H        11.3029328144        5.8789963455       27.5295811194
  H        10.1071378560        7.1440673279       27.2424814821
  C         8.0664607027        5.8476960933       26.2368005670
  H         9.9006908235        4.8507235300       25.6770983170
  H         9.2326943970        4.2031384186       27.2355946691
  C         7.0740060582        4.8524306322       25.4377995633
  H         7.5104267650        6.3517654568       27.1289116882
  H         8.2721949669        6.6707891303       25.5855255628
  C         6.7612280525        3.5293002032       26.2603701691
  C         7.5988272772        4.0853813861       24.3407427751
  C         5.8607392016        5.6297983140       24.8313063589
  C         7.1214004985        2.3758294267       25.5629072589
  C         6.3334731944        3.2542344091       27.5755265778
  C         7.5780856606        2.7195762109       24.2542674950
  C         8.0625467506        4.7197395186       23.1862446289
  H         5.3936450145        4.9009855584       24.1288681825
  H         6.1428713375        6.4919616327       24.2475742510
  C         4.8205033851        5.9650669820       25.9615290374
  S         6.8092243740        0.9093946840       26.4956105717
  C         6.2525691561        1.9041700459       27.8067404316
  H         6.1187408818        4.0755983772       28.2774070873
  C         7.9233492204        2.1250235523       23.1035587324
  H         8.0572899516        5.8204672318       23.0977908283
  C         8.3980698689        4.1327191873       22.0189669815
  H         4.5151110836        5.0681237365       26.5222271843
  H         5.1265970435        6.6089872957       26.7774385221
  C         3.5279234209        6.5009549998       25.2952095770
  C         5.8179178671        1.2649000071       29.0664905702
  C         8.3039458572        2.8115930719       21.9051192494
  H         7.7961626086        1.0195932687       22.9772589312
  C         8.7897813381        4.4587464423       20.7164530146
  H         2.9980730097        5.7718187378       24.6606481838
  H         3.9274375649        7.3079911788       24.6329514800
  C         2.3933332331        6.9189163410       26.2055769584
  C         5.9732416104       -0.0926106473       29.4756229411
  C         5.6753983513        2.2218178152       30.1872948800
  C         8.6518304854        2.0660786443       20.6355319591
  C         9.0000842909        3.3793132850       19.8859859562
  S         9.1066321961        5.9158422301       19.9700588997
  H         1.5091069428        6.9763262527       25.5834023579
  H         2.7248709816        7.9043407280       26.4372736813
  C         2.1148930526        5.9432911263       27.4121837706
  N         6.1398445981       -1.2138324407       28.6224166608
  C         5.6929373642       -0.4344083531       30.7694115458
  C         5.4310249875        1.9037711764       31.4842531831
  H         5.6491421995        3.2622780962       30.0126096500
  C         7.4962228104        1.2706296643       20.0561414878
  C         9.9042939980        1.1795522964       20.9712345496
  C         9.4302065523        3.7340058962       18.5988570491
  C         9.6550968534        5.1240431686       18.5286654649
  H         2.6986114674        5.0161130372       27.3422128668
  H         2.5365914509        6.4235134631       28.3109868950
  C         0.6272076187        5.5399599776       27.5430195621
  S         6.1738643344       -2.5080043018       29.4778460101
  N         5.6583675854       -1.8693712134       30.8502653906
  C         5.5083384888        0.4506563038       31.8524915181
  H         5.3432654472        2.6671944342       32.2312073148
  H         7.2848584128        0.4683330057       20.8071109609
  H         7.7870351252        0.8543805316       19.0606558530
  C         6.2173445893        2.1740237921       19.8654187769
  H        10.3631136437        0.7721357515       20.0266875102
  H         9.5429175606        0.3799283797       21.6618494543
  C        11.0708595440        2.0331731757       21.6303793295
  H         9.5728339719        2.9436683369       17.8948197601
  C        10.0365232052        5.8833070306       17.2481178913
  H         0.2486724449        4.9220122104       26.7220803591
  H        -0.0929374500        6.4119741383       27.5397726112
  C         0.4101511961        4.7692060508       28.7654495389
  C         5.3149015444       -0.1620331374       33.0928741474
  H         6.3717087201        2.8643997670       19.0208020043
  H         6.0016444505        2.6861916760       20.8505061119
  C         4.9908780103        1.3847796267       19.5252769286
  H        10.8781839842        2.4865636604       22.6131627665
  H        11.3219269328        2.8774652004       21.0116498868
  C        12.3577925266        1.1514814062       21.7109561734
  C        10.1051145644        7.3147116158       17.1319070800
  C        10.1978157080        5.0958248730       16.0025381437
  H        -0.7020009524        4.7037198648       28.9331107072
  H         0.7912439253        3.7695845304       28.5468234147
  C         1.0820230041        5.2253930498       30.1015786355
  H         5.7719681402       -1.1495774775       33.2691397044
  C         4.8164720017        0.2784292290       34.3144739014
  H         4.1048213172        1.8398467636       19.7830843059
  H         4.9689558018        0.5009405146       20.1499255212
  C         5.0269224263        1.0553011064       18.0115212665
  H        12.2404183711        0.2981121185       22.4113240293
  H        12.6317858708        0.7268571160       20.7713189630
  C        13.5330427873        2.0670698031       22.1310468407
  N        10.1086273823        8.1646179909       18.2172836870
  C        10.4339323847        7.9541611037       15.9881264160
  C        10.4448944759        5.8406255342       14.8379945582
  H        10.0196490112        4.0503535354       15.8931875968
  H         0.9601458352        6.2281055382       30.5158797442
  H         0.6353557771        4.5399368205       30.8457655202
  H         2.1309061226        4.9842651249       30.0746756064
  S         4.3722188649        1.9336793108       34.6286915735
  C         4.7305855268       -0.6873120428       35.4475500351
  H         4.9542622006        1.9969514338       17.4790590387
  H         5.9164473203        0.5209797826       17.6389047137
  C         3.7319720000        0.4909000811       17.4930183180
  H        13.1959408564        2.9303959663       22.5806376705
  H        14.0090486270        2.3838374855       21.2236374708
  C        14.6061537595        1.3154843552       22.9601386584
  S        10.2717983733        9.7022729992       17.7117706871
  N        10.6138136268        9.3237039699       16.1495416915
  C        10.7619237981        7.2537122131       14.8484708359
  H        10.5611650667        5.2399457279       13.9453330520
  C         4.2838455020        1.3024390672       36.3351188678
  N         4.2882719673       -0.0292723538       36.5271107702
  O         4.9922113376       -1.8783049455       35.3714143575
  H         3.8776094089        0.4484812069       16.3999100444
  H         2.8818498345        1.1516868992       17.6489241914
  C         3.3869132057       -0.8347116172       18.0478171602
  H        14.1236563447        0.8324012796       23.8309869149
  H        15.1613272978        0.5782628579       22.4060090154
  C        15.7238048421        2.2508381772       23.4554146891
  C        10.9825508650        7.9450160640       13.5996516048
  S         3.8223945133        2.3074629683       37.7151772628
  C         4.2256089488       -0.6276607562       37.8748793547
  H         4.0470907047       -1.5626493745       17.6088519595
  H         3.4809859457       -0.7338139247       19.1422066644
  C         2.0248179069       -1.3990975428       17.7566943693
  H        15.2850852264        2.8788228785       24.1919331396
  H        16.0971197524        2.8904724385       22.6453064625
  C        16.9057956388        1.5319080151       24.0099007620
  H        10.7291280920        8.9847278576       13.5623100448
  C        11.5374562769        7.5930323787       12.3550673681
  H         3.5896962189       -0.1047067469       38.5802780211
  H         3.8343327385       -1.6074215706       37.8896291339
  C         5.6238259899       -0.6960104118       38.4669611438
  H         1.2629230045       -0.6465458602       17.9103776272
  H         1.8198760189       -2.2661415845       18.4127415920
  C         1.8856231945       -1.7761361275       16.3291427589
  H        17.2949048804        2.0002529291       24.9147650015
  H        16.5542816929        0.5438684484       24.3417199835
  C        18.0668153853        1.3563239840       23.0828278875
  S        12.0942704928        6.0645142308       11.8367104376
  C        11.5848766637        8.6539003190       11.2826510729
  H         5.7168558473       -0.9970964774       39.4603513213
  H         6.1611430068       -1.4638909154       37.8871298139
  H         6.0836996207        0.2984606991       38.4532139630
  H         2.1586598669       -0.9464191023       15.6471869063
  H         0.8760057769       -2.0920972102       16.1571080223
  H         2.6433030048       -2.6136051587       16.1246490466
  H        18.2481368881        2.1665258229       22.4011079112
  H        17.7927302936        0.4206921845       22.4849327926
  H        18.9184576451        1.1419927217       23.7655423062
  C        12.2659298612        6.6963021135       10.1820597592
  N        12.1322547019        8.0584214835       10.1323559548
  O        11.1595995944        9.8436163775       11.3988488061
  S        13.1116585583        5.9195442279        8.8522896694
  C        12.3112811116        8.9268186347        8.9988737973
  H        12.7710248678        9.8723914986        9.2627097493
  H        13.0216319760        8.5721787914        8.3083028087
  C        10.9851992945        9.3079504008        8.3757129642
  H        10.1327505582        8.6839223289        8.6000992990
  H        10.7229732978       10.3618084244        8.5686715039
  H        10.9306184274        9.3315988654        7.3161713252
  H        20.6565476620       10.6546122480        3.4103939915
  C        21.4306644804        9.7968819397        3.3948141715
  H        20.6998458638        9.0941659376        3.5945686081
  C        22.6046841831        9.9260088961        4.3268667564
  C        21.8560433277        9.8708635391        1.8673031556
  C        22.1132519557       10.1968375189        5.7306576035
  H        23.2211756431        9.0093504999        4.3355802950
  H        23.2324832724       10.7391373983        4.0530798106
  H        22.6439038372       10.6748222341        1.6891571077
  H        21.0736136469       10.0626705259        1.1751006288
  H        22.3821800945        8.9326520501        1.5482927015
  C        21.5566899446        8.8449648919        6.2586783789
  H        22.9407511947       10.5167420327        6.3255367672
  H        21.3428602521       10.8783618940        5.7652366989
  C        20.3744095561        9.1238958323        7.1894749616
  H        22.3766912717        8.3719630654        6.7528424705
  H        21.1860217759        8.1485988658        5.4851773414
  C        19.0405050013        9.4524033727        6.4391820917
  H        20.7660515312        9.8600395620        7.8416612542
  H        20.1710550825        8.2404975434        7.9145658919
  C        17.9164946153        9.5047413751        7.4299207572
  H        19.1962643675       10.3120598191        5.7859877363
  H        18.9249461716        8.6401497547        5.7808895467
  C        16.6427238841       10.4831473990        7.1766851600
  H        18.4795425508        9.8988439365        8.2875911122
  H        17.4599603647        8.4963687479        7.6306181033
  C        17.1244514785       11.7863776108        6.4961182403
  C        16.2637451917       11.2775506488        8.4253488167
  C        15.4809736654        9.7441561784        6.5319068122
  C        16.9171520362       12.9087283380        7.2981462884
  C        17.4578699318       12.2658598197        5.2363670855
  C        16.4655732236       12.5961887607        8.5545526319
  C        15.7050965640       10.6335215295        9.5364366921
  H        15.9382914772        9.2210919464        5.6233558285
  H        15.2741904257        9.0649551459        7.3271236457
  C        14.2911627139       10.6788911685        6.1425426822
  S        17.4897313752       14.3709790372        6.5917211384
  C        17.7138775948       13.6013853951        5.0291535378
  H        17.3457169672       11.5945398189        4.3150522024
  C        16.1295487878       13.2638272010        9.7495183683
  H        15.5107869428        9.5989375444        9.4569816268
  C        15.4029036702       11.2494074118       10.6913589949
  H        14.6396102423       11.5658572867        5.6077449039
  H        13.9423135084       11.1586161486        7.0936461305
  C        13.1663504865       10.0670041282        5.2726199611
  C        18.1396008175       14.2761015438        3.7744214405
  C        15.5722484674       12.5861908915       10.8419908416
  H        16.3795671188       14.3404523930        9.7975313164
  C        14.9958773503       10.8997103589       11.9647794632
  H        12.2650119551       10.6816510512        5.2424366537
  H        12.8753209848        9.1938050565        5.7907494150
  C        13.5223004533        9.6340712868        3.8680119079
  C        18.0478138264       15.6565457586        3.5759092593
  C        18.6844717569       13.5023886432        2.6071086878
  C        15.2130692980       13.2924051474       12.0755686908
  C        14.9069371193       11.9852385986       12.8010547938
  S        14.6626640693        9.4282278162       12.8239096690
  H        13.4404303861        8.5629131803        3.7811860150
  H        14.5662634651        9.9093519376        3.7297619831
  C        12.5946633152       10.1662822316        2.7469747020
  N        17.8482579017       16.5436598431        4.6029726903
  C        18.4318120447       16.2558290408        2.4206894448
  C        18.8940704980       14.0804669327        1.4205998601
  H        18.7577403026       12.4937189559        2.6038297136
  C        13.8883517986       14.1534484596       11.8803269566
  C        16.4155220833       14.0637740081       12.6529954082
  C        14.5398729784       11.6215810993       14.1011948558
  C        14.3937154815       10.2429508360       14.2918103762
  H        11.5490789372        9.9899259078        2.9432905019
  H        12.7269532681       11.2516604010        2.6837398844
  C        12.9303254598        9.4886388359        1.3811551852
  S        17.9707834530       18.0451648916        4.0035058206
  N        18.4045902605       17.6549812561        2.4706013417
  C        18.7139277755       15.5054431698        1.2301549319
  H        19.2433147953       13.4588706619        0.6032289050
  H        14.1593799759       14.8701643710       11.1547833936
  H        13.6719921441       14.6745847540       12.8380613255
  C        12.6598238759       13.3389201782       11.5402977667
  H        16.2985459066       14.9833242496       12.0200612960
  H        16.1781991733       14.4482241318       13.7095542810
  C        17.7836404403       13.3133482443       12.6692763838
  H        14.5396176353       12.3988364442       14.8623261571
  C        14.1012213354        9.4433056619       15.5444477323
  H        12.1633230980        8.7000511714        1.2716636770
  H        13.9680051475        9.0522130655        1.3939501679
  C        12.9101010843       10.4536242275        0.2178091941
  C        18.9832945642       16.1728137076        0.0418930338
  H        12.7825864246       12.7479775124       10.6303076556
  H        12.4400662855       12.5014517947       12.2134821709
  C        11.2695638501       13.9510240639       11.4842857254
  H        18.0725384094       12.9397322266       11.6359887176
  H        17.6975347884       12.3907477888       13.2807885478
  C        18.9262885394       14.2398457796       13.2155657694
  C        13.9640445905        8.0069396254       15.6523237969
  C        13.8378467997       10.1121715585       16.8140451344
  H        13.4004066839       11.4254337480        0.4475556584
  H        13.3984335854        9.9143350871       -0.6069349367
  C        11.4609190542       10.6733395732       -0.1925032362
  H        18.9135435814       17.1878849793        0.2028316559
  C        19.2348757877       15.7339767340       -1.2258111798
  H        11.3399058740       14.8863367123       10.8084230311
  H        10.9680164087       14.3377932304       12.4441423478
  C        10.2381175551       13.0002299684       10.8123196149
  H        19.3136446491       14.7776208125       12.3583157628
  H        18.4691059286       14.8775894880       13.9213685485
  C        20.1295876577       13.5055964988       13.8611297489
  N        14.1336153766        7.2053437705       14.5867291933
  C        13.6805486535        7.2944472584       16.8123840320
  C        13.4706219511        9.4419733241       18.0065657815
  H        13.9292877049       11.1639910270       16.8016516140
  H        10.7159324570       10.8523145732        0.5646488506
  H        11.0461483682        9.7680537702       -0.5363384462
  H        11.3215182630       11.3712164535       -1.0408470963
  S        19.4740287312       14.1744861786       -1.8366422604
  C        19.2798528429       16.8257087481       -2.2619345484
  H        10.6264563940       12.3403601154        9.9474196761
  H        10.0328879152       12.3647154895       11.6221441928
  C         8.9655262410       13.6962462694       10.3463507142
  H        20.7668400115       13.0012050544       13.1239454247
  H        19.7222470618       12.6740191185       14.4716500044
  C        20.8081134838       14.3363884646       14.9727681767
  S        13.8828481887        5.6455292265       14.9882330130
  N        13.7507920414        5.9005883011       16.6470352869
  C        13.3775810343        7.9621364938       18.0855214907
  H        13.1456063493        9.9844318069       18.8416268815
  C        19.6231391811       14.9001046222       -3.4177545323
  N        19.5985344671       16.2776019484       -3.4501199523
  O        18.8098972298       17.9294283773       -2.0839737665
  H         8.3138442583       14.0040866830       11.1743941938
  H         9.1136994065       14.6720661499        9.7879326683
  C         8.1298461651       12.7901686791        9.3650120058
  H        20.0755794381       14.4176662901       15.7610925424
  H        21.5874688164       13.7432124729       15.5312908052
  C        21.4024881855       15.7300302943       14.5931845844
  C        12.9448051481        7.1857818071       19.1492218239
  S        20.1033732408       13.9760299650       -4.8735045041
  C        19.6393218031       17.0096343254       -4.6490815168
  H         8.6944537096       12.4400146190        8.5571270642
  H         7.7672701086       11.8838260942        9.8880331726
  C         6.8484458654       13.5647510708        8.8330326803
  H        20.8116437996       16.1892211792       13.7697795721
  H        22.4258730678       15.7396177537       14.0874413775
  C        21.6271347445       16.5534142062       15.8309209423
  H        13.0088119941        6.0953160727       18.9992233057
  C        12.4105761017        7.4070519603       20.3725997669
  H        20.3212842727       16.6525527848       -5.3307519750
  H        19.9896163465       18.0280143820       -4.5478907745
  C        18.2602899810       17.0001416016       -5.2147315311
  H         6.4814649910       13.0211289883        7.8905442096
  H         7.1858865457       14.4847766097        8.5052956015
  C         5.6836003223       13.6276992748        9.8347312424
  H        21.7575504505       15.9058802539       16.6744169242
  H        22.5547423201       17.1140139355       15.7130022574
  C        20.4816322918       17.4477207810       16.0230101315
  S        12.0315209041        8.9840606204       20.9780218832
  C        12.3707058539        6.2678458771       21.3002627275
  H        18.2234529243       17.5592202285       -6.1359531451
  H        17.5246005185       17.3659421738       -4.4935584157
  H        17.9379251046       15.9837478584       -5.4320561813
  H         5.8791336449       14.2304759902       10.7304578627
  H         4.8759888395       14.1219494833        9.3517991879
  H         5.3673515865       12.6566756954       10.2106798497
  H        20.0687382612       17.8214379926       15.0373233644
  H        19.6877193050       16.8634312315       16.4091151706
  H        20.6811815636       18.3211497814       16.7336998228
  C        11.8048776371        8.0618061617       22.5115813803
  N        11.8971449835        6.7025418522       22.4455236135
  O        12.6482910344        5.1107276977       21.0703002021
  S        11.4489295174        8.7804389163       24.0474665686
  C        11.6121483954        5.7817989343       23.6069980856
  H        11.2303417356        4.8203392282       23.1689074013
  H        10.7414416185        6.1383154612       24.2111929883
  C        12.8505024476        5.6768338438       24.4875735677
  H        13.1491282935        4.6121995221       24.5909100308
  H        12.5251736806        5.9082544656       25.5332497542
  H        13.5989181700        6.3805092239       24.1839014483
