352
 i =    66900, time =    66900.000, E =        24.9661927655
  H        10.8401318336        4.2137942772       31.1894951673
  C        10.8302209085        5.2851850530       31.4154263513
  H         9.8055239350        5.4217637345       31.6812805088
  C        11.2092892764        6.2936900089       30.3364308304
  C        11.5831085697        5.3956016099       32.6831864530
  C        11.9513400331        5.6407935529       29.1745488579
  H        10.2302727435        6.6974160333       30.0059199396
  H        11.7640073017        7.1520841689       30.7653549622
  H        11.9430136899        4.4477003935       33.0590603515
  H        12.4926956264        5.9863499469       32.6042607162
  H        10.9841257595        5.8099320231       33.4761007739
  C        11.0466416958        4.8973161100       28.2420824795
  H        12.7252929163        5.0414190749       29.6019593445
  H        12.4667160199        6.4643188759       28.6826338607
  C        10.4154399650        5.8815621375       27.2142700250
  H        11.6668366128        4.1464096747       27.6460633368
  H        10.2132765733        4.4159058187       28.7676827169
  C         9.3222699804        5.0532806540       26.5121774361
  H        11.1452962357        6.2120484244       26.4943440873
  H        10.0146706732        6.7545856971       27.8305027707
  C         8.1470714051        5.7315335383       25.9284396296
  H         9.6922008015        4.3115591442       25.8424812654
  H         8.7996733359        4.4587073088       27.2007964770
  C         7.1661207478        4.9220219081       25.1417714497
  H         7.6632238784        6.1330008799       26.8969451949
  H         8.5255684034        6.5874340536       25.4130110265
  C         6.8600012588        3.5730570097       25.8458458747
  C         7.8564891807        4.2161243043       23.9817813624
  C         5.9961488258        5.7430456761       24.5706163043
  C         7.3084237991        2.4486100622       25.1166805441
  C         6.3633325363        3.1548001925       27.1099521312
  C         7.8672494895        2.8713465073       23.9047124232
  C         8.4269480516        4.9216945164       22.9365497687
  H         5.6703598256        5.2798423523       23.6182251328
  H         6.4521302922        6.7097317133       24.4906799149
  C         4.8064110289        5.9671469002       25.5605633768
  S         6.9994522784        0.9235841069       25.9317491822
  C         6.3865584540        1.8144003527       27.3380498349
  H         6.0292813207        3.8943399806       27.7826241014
  C         8.3573084504        2.2891950563       22.7434970887
  H         8.3262879837        6.0369635035       22.9839002635
  C         8.9684353306        4.3912845245       21.8259902669
  H         4.5487178596        5.1559907358       26.2490965368
  H         5.0410785860        6.8490646173       26.2822886070
  C         3.5026659184        6.4294173531       24.8738846717
  C         6.0853592901        1.1229583010       28.6907886190
  C         8.8940619047        3.0453518360       21.6677726675
  H         8.3245707033        1.2189664435       22.6660350130
  C         9.4092932282        4.8302301808       20.6364539119
  H         3.1499377039        5.6187494219       24.2726321800
  H         3.7040221330        7.2861472862       24.2594109495
  C         2.5257269663        6.7757135975       25.9791270238
  C         6.1377054831       -0.2552625905       29.0005836224
  C         5.6856341809        2.0248858371       29.7814869461
  C         9.2554199508        2.3986261386       20.3771315232
  C         9.5747287461        3.7508196488       19.7660720541
  S         9.8235273359        6.3201966497       19.9277881404
  H         1.8833852420        7.6231307471       25.6140015181
  H         2.9953748666        7.1521869128       26.8739807760
  C         1.7096782889        5.5217523717       26.3245258123
  N         6.6051679676       -1.2409737020       28.1554614104
  C         5.8269232574       -0.6974708807       30.2767499646
  C         5.4279107573        1.5820980628       31.0754315383
  H         5.5740556526        3.0114680415       29.5870097090
  C         8.0829352357        1.6712627472       19.7287788024
  C        10.4804522820        1.4960625296       20.5843108860
  C         9.8272171288        4.1699114191       18.4576337216
  C        10.1046233453        5.4658198302       18.4039970549
  H         0.9102844348        5.3410555290       25.6142026595
  H         2.2863657556        4.5369477541       26.3762515816
  C         1.0217532289        5.6661492756       27.6929012457
  S         6.7557551179       -2.6706186215       29.0123094973
  N         6.0869419646       -2.0501402367       30.3500320273
  C         5.6238267658        0.1263482782       31.4045043765
  H         5.2248820650        2.2625914310       31.9233804221
  H         7.8240546466        0.8507877693       20.3860866631
  H         8.3518106234        1.2230567941       18.8039573956
  C         6.8098593193        2.6295824805       19.5899805763
  H        10.8747535750        0.9594430652       19.7048515756
  H        10.2857127204        0.6616276879       21.2918889533
  C        11.7228743485        2.1548267590       21.1939545818
  H         9.7570902201        3.3930948010       17.6642962776
  C        10.4921303037        6.1556635769       17.0963707605
  H         0.1843139592        4.8614800375       27.8251654765
  H         0.3887820268        6.5477237195       27.6355339181
  C         2.0697568025        5.3813524730       28.8307747903
  C         5.3458819035       -0.4998987146       32.6604762681
  H         7.0076886669        3.2223673343       18.7375500418
  H         6.7121477506        3.3716134350       20.3852999145
  C         5.4781913321        1.8084222185       19.4000162688
  H        11.4816395160        2.7953674011       22.1184280879
  H        12.2846689612        2.8393053036       20.5297196053
  C        12.8205225434        1.1746692337       21.6402293207
  C        10.4370155215        7.5802352556       16.9008099053
  C        10.6838878408        5.2537719504       15.8851761833
  H         2.4474598480        4.3807931263       28.6036411182
  H         2.8857562325        6.0730270377       28.7423184448
  C         1.5564257841        5.4857842494       30.2252169763
  H         5.4016717423       -1.5901701737       32.7009075440
  C         5.1181848038       -0.0270676522       33.9504087884
  H         4.6226898125        2.3411139816       19.8777882000
  H         5.5876298759        0.8593139236       20.0137141132
  C         5.1390100804        1.4827028817       17.9982080382
  H        12.5188194222        0.4331707477       22.3627251016
  H        13.1650082246        0.5204418313       20.7738688366
  C        14.0396594442        1.8590650489       22.1848801456
  N        10.1840776653        8.5604913599       17.8810007129
  C        10.7973737113        8.0956557260       15.6648898133
  C        10.9752081084        5.8382206216       14.6352372034
  H        10.7471640308        4.1897214513       16.0058520729
  H         1.2023811876        4.4808426263       30.5969667268
  H         2.3079551053        5.6125808857       30.9406153528
  H         0.8138469382        6.2340031181       30.2146654812
  S         4.8657131194        1.6997635188       34.3794509377
  C         4.9722065342       -1.0694647880       34.9903043496
  H         5.3813373428        2.3155854676       17.3539121119
  H         5.6623856601        0.5742496561       17.6399287706
  C         3.5979055708        1.2445137486       17.8203070088
  H        13.9704692658        1.9506792436       23.2722223459
  H        14.1351643959        2.8723602818       21.7982775806
  C        15.2406114668        1.0188794080       22.0025868082
  S        10.2823244630       10.0150689884       17.2079390078
  N        10.9142668269        9.5430063756       15.7983298859
  C        11.0462343926        7.3240840221       14.5220282191
  H        11.0091535651        5.2887928004       13.6690009859
  C         4.5441187163        0.8925621654       35.9931460038
  N         4.6255538593       -0.4671952142       36.1205353320
  O         5.1346735207       -2.2763302431       34.7521244660
  H         3.4040077989        0.9169803132       16.7806481032
  H         3.1521373295        2.1615953411       18.0058845958
  C         3.0322573508        0.1739799580       18.7907533471
  H        15.1493417453        0.1913721528       22.6141919062
  H        15.4103492158        0.7457340731       20.9650758484
  C        16.4603425506        1.8078150553       22.4304303224
  C        11.3623505991        8.0734883600       13.3225745007
  S         4.1365781247        1.7917830400       37.4279514768
  C         4.3460746374       -1.3128158148       37.2544923821
  H         3.4347589076        0.3005156255       19.7668192491
  H         2.0081534517        0.3338032023       18.9558585632
  C         3.1648020136       -1.2739064727       18.1855910462
  H        16.2216051990        2.1810179715       23.4193765423
  H        16.6527946491        2.5840217057       21.6856399139
  C        17.7629310617        0.9876468174       22.4521446435
  H        11.2515532193        9.1382477712       13.4584100112
  C        11.8859710149        7.8412682614       12.1268132392
  H         3.5728818555       -0.7867215257       37.9157807662
  H         3.7850308351       -2.2076488548       36.9767618415
  C         5.6627818402       -1.6555237997       38.0728198769
  H         2.5620689824       -1.7432133037       18.9482591538
  H         4.1679219487       -1.6940067203       18.3239743457
  C         2.5065580314       -1.5390756907       16.8630550747
  H        17.7936177230        0.4390767592       23.4303909535
  H        17.6612381475        0.2874550918       21.6574895614
  C        18.9736559145        1.9196306998       22.6506591828
  S        12.6722095302        6.3681811104       11.6676417539
  C        11.9307781562        8.9364664092       11.1737643558
  H         6.2606652918       -0.7538549431       38.0838922746
  H         5.4212982061       -1.9650066802       39.1118319063
  H         6.2415404625       -2.4191046603       37.5963895444
  H         1.5878926672       -0.9966084532       16.8371668644
  H         2.3134590720       -2.5453189845       16.7879003810
  H         3.2086293181       -1.2610840483       16.0892304215
  H        18.8823049296        2.4133848227       23.6049260700
  H        19.0521526727        2.6614262290       21.8547387009
  H        19.8626200016        1.3859728684       22.7450833588
  C        13.0608916207        7.2748981827       10.1694730553
  N        12.6980174219        8.6108004484       10.1236899559
  O        11.5063681913       10.0932138131       11.2319108622
  S        14.0962721311        6.8188406140        8.8414186698
  C        12.7723162274        9.5833422071        9.0431475983
  H        13.1161560834       10.4977121318        9.3843478772
  H        13.5626736485        9.3146281411        8.3598520935
  C        11.4611439117        9.7038654812        8.2293309810
  H        10.7492491679       10.1897870144        8.7745540175
  H        11.6180298946       10.2467007632        7.3034133109
  H        10.9517404665        8.7042287724        8.0736957832
  H        22.1602536152        8.7266306610        3.3652110372
  C        22.5544944574        9.7130822128        3.1266343856
  H        23.5550377150        9.6475604955        2.7770696101
  C        22.9063042011       10.4935642465        4.3757703413
  C        21.7382642770       10.3949858367        2.0264507052
  C        21.7490144233       10.6493959580        5.3122574615
  H        23.6432204244        9.8839622579        4.9704502945
  H        23.3764956940       11.3830860705        3.9911102159
  H        22.2725041444       11.2581469621        1.4861328383
  H        20.7329606886       10.6543334055        2.3649493003
  H        21.6729092318        9.5959115580        1.2870855975
  C        21.3666488523        9.3224714824        6.0677239281
  H        22.0517832177       11.5056335751        5.9098044604
  H        20.8176032651       11.0343999702        4.8766455685
  C        20.6566359624        9.4957845753        7.4380449644
  H        22.2060823816        8.7386453633        6.2574817056
  H        20.6430111156        8.7656660182        5.4357524305
  C        19.3950611228       10.3686674449        7.5227718177
  H        21.3644041515        9.9703163653        8.1298208349
  H        20.4002322607        8.5145961280        7.8534803092
  C        18.1351962382        9.6663075343        7.0143575260
  H        19.2838189370       10.8053092880        8.5565691879
  H        19.6669196409       11.1910505042        6.9158261563
  C        16.8882930057       10.5535795334        6.9279260603
  H        17.8532201369        8.8758467498        7.7224874947
  H        18.3144653160        9.2094527443        6.0144518765
  C        17.3229715757       11.9282439793        6.3379530104
  C        16.4768178485       11.2965422014        8.2137618197
  C        15.6555603505        9.9550889617        6.2326247348
  C        17.2032610304       13.0056455899        7.1864203684
  C        17.8728611048       12.2896974874        5.1186514021
  C        16.6689770385       12.5864435932        8.3858881514
  C        16.0198617076       10.7133759311        9.3801100848
  H        15.9498195809        9.5645850127        5.2089423826
  H        15.3552846383        9.1051368214        6.7826767693
  C        14.4819703873       10.8981221600        6.0070732817
  S        17.7410651053       14.4782339220        6.4279770208
  C        18.0919031815       13.6385160820        4.9622541224
  H        17.8682946323       11.5635498329        4.2861923779
  C        16.4030446790       13.2539707811        9.5489710682
  H        15.7562367237        9.6677543335        9.2979377793
  C        15.6820186190       11.3196080069       10.5187760378
  H        14.8389115662       11.8943151041        5.7361897272
  H        14.0126438030       11.1655546513        6.9674179640
  C        13.3379642208       10.3735613958        5.1222311318
  C        18.4827406698       14.3419191229        3.6697183962
  C        15.7260748728       12.6443798001       10.6450825321
  H        16.5981140926       14.2959907703        9.5653682058
  C        15.2431500310       11.0230363258       11.7332180439
  H        12.5188080090       11.1272853258        5.0887399102
  H        13.0270148843        9.4127251773        5.5749641454
  C        13.8140441984       10.1630044007        3.6958090560
  C        18.4261196364       15.7465434583        3.4442792677
  C        18.7937642839       13.5139520933        2.4604952053
  C        15.3566224777       13.4118613624       11.9071377811
  C        15.0556340205       12.0756718074       12.6046041832
  S        14.9688003224        9.5011834403       12.4682216064
  H        14.4280265701        9.3507785149        3.6623635477
  H        14.3503154974       11.0577064380        3.2259206681
  C        12.6259927243        9.8475754259        2.7369622103
  N        18.1461925600       16.6857492878        4.3931875135
  C        18.6696617982       16.2878441812        2.1849940401
  C        19.0904729756       14.1019724696        1.2572730474
  H        18.7666828569       12.4589884411        2.4634004158
  C        14.0507251825       14.2181931454       11.9090112723
  C        16.5271890882       14.1823997176       12.4743304920
  C        14.8068846123       11.6231125578       13.9391881424
  C        14.6955778757       10.2067602944       14.0762190105
  H        11.9486761509        9.2194817800        3.3298643485
  H        12.0626675115       10.8154306215        2.5185107228
  C        13.0115240590        9.2100371808        1.3760375075
  S        18.0402749230       18.0877659091        3.7401152966
  N        18.4057845570       17.7021126533        2.1770190114
  C        18.9169400800       15.5760854389        1.0428980945
  H        19.3518860633       13.4476234917        0.4439093147
  H        14.2591803021       15.0209985114       11.2025081357
  H        13.8130792097       14.4716212614       12.9185877405
  C        12.8504828607       13.4649560162       11.2968332858
  H        16.9934984583       14.8512459955       11.7507031385
  H        16.1750610094       14.7978681940       13.2589987549
  C        17.7093581057       13.4049196509       12.9670485337
  H        14.7977247422       12.3335000726       14.6861281291
  C        14.5017143162        9.3721684176       15.3027692169
  H        12.2349001175        8.5029216706        1.1510141885
  H        13.9295069699        8.6006236672        1.5616442542
  C        13.2400915591       10.2033005674        0.2112256147
  C        19.1813510750       16.2622794973       -0.1867736998
  H        13.0153512650       13.1180949587       10.3504124050
  H        12.5972427474       12.5689163964       11.8660917987
  C        11.6694684177       14.3564908314       11.3053190596
  H        17.9783620052       12.6200366165       12.2774354600
  H        17.3476573542       12.8758375742       13.8635259300
  C        18.7916658300       14.4000518124       13.3763332547
  C        14.5143532251        7.9301778927       15.4285298854
  C        14.2719796347       10.1534751263       16.5615139723
  H        13.4089917464       11.1734447490        0.6706212984
  H        14.1457723349       10.0505054248       -0.3715630490
  C        12.1089141051       10.4492560619       -0.7010219218
  H        19.3765913745       17.3255815849        0.0038834020
  C        19.4109019163       15.8532558158       -1.4539886033
  H        11.7993101619       15.1882549332       10.5765647116
  H        11.5341732484       14.7946296632       12.3350950474
  C        10.3947647622       13.5345098441       10.9534522694
  H        19.1318953807       14.8379916359       12.4757674356
  H        18.3940920584       15.1785039136       13.9763117006
  C        19.9641769167       13.8758951466       14.1929927372
  N        14.7338255395        7.0107371788       14.3463964268
  C        14.2285754297        7.3256773598       16.5997217956
  C        14.1169176458        9.4879131538       17.7589918900
  H        14.3703125532       11.2258045092       16.5222340392
  H        12.2296839297       11.4452653545       -1.0493765188
  H        11.1322107605       10.5204062186       -0.1826301369
  H        12.0569811178        9.7605375105       -1.5488454694
  S        19.6828927769       14.2276103250       -2.0162880034
  C        19.4284214223       16.9008864325       -2.5531260466
  H        10.6800290613       12.6121725811       10.4921254367
  H         9.9505771783       13.2963137329       11.9225660812
  C         9.4752995239       14.4021277658       10.0412433680
  H        20.6593348215       13.2797584949       13.6409239275
  H        19.5500926284       13.2843559736       15.0330844083
  C        20.8623313148       15.0982507459       14.6363160657
  S        14.6274834020        5.5835391885       15.0172964872
  N        14.2870964267        5.9625600942       16.5198867015
  C        13.9527610613        8.0049845242       17.8089142408
  H        14.1162504492        9.9895467903       18.7095216887
  C        19.9789162077       14.9518526727       -3.5744122378
  N        19.9326272523       16.2715564509       -3.6753241646
  O        19.0583342517       18.0609662542       -2.4672131357
  H         8.9122977048       15.2123490256       10.6099873993
  H        10.0232818990       14.9144474339        9.2366806349
  C         8.4255240181       13.4650983860        9.5312099444
  H        20.3185170812       16.0285536390       14.9041362762
  H        21.3696602314       14.8369986754       15.5682701937
  C        21.9303496385       15.5106235449       13.5798041027
  C        13.6939066809        7.2136028924       18.9660895667
  S        20.4152373520       13.9254695603       -4.9812764440
  C        19.9298803004       17.0035278153       -4.9453484754
  H         8.7945010812       12.7622653543        8.7795553403
  H         7.9796534869       12.9533400613       10.3932629536
  C         7.3370057394       14.2419461595        8.7772268689
  H        21.3051730402       15.7802377883       12.7145167343
  H        22.4445999695       14.6451943128       13.1684922196
  C        22.9301132100       16.6735706117       13.8606099275
  H        14.1224613603        6.2483741629       18.8819265205
  C        12.9992573223        7.4745680366       20.1111949092
  H        20.7073365714       16.6097042795       -5.6235907636
  H        20.1553344927       18.0649254330       -4.7598482356
  C        18.4945069657       16.8540143819       -5.5559699562
  H         7.0207809416       13.7237308446        7.8238571091
  H         7.6130014527       15.2301530201        8.4929549359
  C         6.1054889618       14.6226450265        9.6315554301
  H        23.8350470996       16.4621780856       14.4829358450
  H        23.2677128873       17.0732221644       12.9065088371
  C        22.3421758362       17.9005485939       14.4956673942
  S        12.1594015568        8.9017051244       20.5203065429
  C        13.0467371481        6.4556169771       21.1514193656
  H        17.6724516393       17.3222973399       -5.0196270360
  H        18.2460075921       15.7612928982       -5.4558871611
  H        18.4872781202       17.2144769409       -6.4949557839
  H         5.4566308099       13.7851773533        9.7798170528
  H         6.3663054781       15.0397594995       10.5668634694
  H         5.7159490846       15.3204686326        9.0037312147
  H        21.8303750088       17.6972220748       15.4092106423
  H        22.9583636148       18.8459540318       14.5765968632
  H        21.5406697191       18.2821169234       13.8933434511
  C        11.8858387149        8.1174774682       22.1392498178
  N        12.3492966907        6.8376020050       22.2518063873
  O        13.4507163553        5.3345659253       20.8962102073
  S        10.9259714276        8.6831835816       23.5279339559
  C        12.2730203646        5.9996202255       23.4607881247
  H        12.2717285178        4.9247082708       23.2258213842
  H        11.3624491438        6.0902857904       24.0288521780
  C        13.5021535181        6.2746235341       24.3452695841
  H        14.3785447068        5.6109861125       24.1322583715
  H        13.3027663384        6.2827182297       25.3854089360
  H        13.6856553480        7.2828010533       24.1020986630
