352
 i =    64500, time =    64500.000, E =        25.0336387357
  H        10.0188565068        4.9234129672       31.2013875190
  C        10.4071897915        5.7372694292       31.7793200521
  H         9.5268363005        6.2605397030       32.2330372382
  C        11.3145254560        6.6797771281       30.9949418032
  C        11.0857721840        5.1740689320       33.0551008802
  C        11.6640338122        6.1551295531       29.6231734699
  H        10.9495240739        7.6846636030       30.9054033412
  H        12.2334192006        6.6993151902       31.5557899681
  H        10.5139610442        4.2979514961       33.4581038745
  H        12.1344158894        4.8030833179       32.8330744131
  H        11.1407599936        5.9182238933       33.8585364919
  C        10.3999884232        6.0355170247       28.7260396968
  H        12.0324673754        5.1548332225       29.6457033230
  H        12.4296593679        6.7439089513       29.1648252599
  C        10.7676786077        5.6434080423       27.2330751346
  H         9.8268515059        5.2886007970       29.1718465872
  H         9.8052065433        6.9224752655       28.7027078430
  C         9.6320112048        4.7160730859       26.7521729074
  H        11.7100902988        5.0923584342       27.1421687975
  H        10.9146531585        6.4337026354       26.4863119922
  C         8.5473049346        5.4729352229       26.0645816508
  H         9.9741255093        3.8880505185       26.0733280339
  H         9.1379972423        4.3150124321       27.5967275719
  C         7.5580133532        4.5747292499       25.2398093368
  H         7.9354715584        6.1527956105       26.7641111688
  H         8.9486276195        6.1691013763       25.3748308634
  C         7.1341756855        3.1904760570       25.9877055077
  C         8.0088078771        3.7108522818       24.1226769159
  C         6.3977738354        5.4014208475       24.6813501383
  C         7.3647545917        2.0689176715       25.2473990723
  C         6.5598856451        2.8260414925       27.2386407043
  C         7.9199537224        2.3824340186       24.0263050760
  C         8.6048904966        4.2892320849       22.9945763653
  H         5.9641992156        4.9885445194       23.7760263346
  H         6.8416616925        6.3148240329       24.3172394128
  C         5.3615532176        5.8132379432       25.7791198250
  S         6.7523167996        0.6326623761       25.9945587195
  C         6.3788988315        1.4846350244       27.4274416216
  H         6.3486525290        3.6110214082       27.9449406566
  C         8.2222308275        1.7590126149       22.8341680258
  H         8.7260564405        5.3569270533       23.0577125976
  C         8.9262210335        3.6677897035       21.8348050509
  H         5.3809835709        5.2898438410       26.7866426328
  H         5.4681654722        6.8737108124       26.0221268950
  C         3.8551073764        5.7098239289       25.2583557223
  C         5.6988664118        0.8793306762       28.6377365331
  C         8.7101471135        2.3623972670       21.6620145891
  H         8.1071836074        0.7370360309       22.6985814695
  C         9.2493380286        4.0511961246       20.5808461240
  H         3.7631844301        4.6805768407       25.0040934591
  H         3.7600515291        6.2365459363       24.3100251122
  C         2.7547462228        6.1891781802       26.3171589152
  C         5.8032423449       -0.5029638262       28.9768469730
  C         5.2072159189        1.7183860350       29.7433082699
  C         8.9577383692        1.6441566458       20.4196146928
  C         9.2742359119        2.9499421212       19.6767716935
  S         9.5538071862        5.5874068660       19.7785529229
  H         2.1444330614        6.9833963433       25.9529363425
  H         3.3068278250        6.5816751030       27.1585478847
  C         1.9710941535        4.9714738694       26.7221564110
  N         6.1504528894       -1.5425744047       28.0819515894
  C         5.5723152559       -1.0199482701       30.2193035234
  C         4.9978408637        1.2244769495       31.0080583671
  H         5.1679594867        2.7742611456       29.6543575441
  C         7.7027193075        1.0722655913       19.7279850767
  C        10.1577427088        0.6295324029       20.6029298753
  C         9.5691074237        3.4452137460       18.3413211102
  C         9.8125695288        4.7807435906       18.2243054385
  H         1.0263621413        4.9911684726       26.1582021484
  H         2.4977226241        3.9959080564       26.5550263913
  C         1.7712274077        5.0086789490       28.2471878944
  S         6.1150625599       -2.9921288289       28.8511101257
  N         5.7854311658       -2.3953529578       30.3152147124
  C         5.1683564307       -0.1851034314       31.3457239640
  H         4.7135982213        1.9245663460       31.8299734119
  H         7.4146079685        0.2238564652       20.3286260112
  H         7.8845843137        0.7008443788       18.7282306881
  C         6.5404018557        2.0110126408       19.6620411615
  H        10.1990819421       -0.0294302663       19.7008688236
  H        10.0429484859       -0.0117591158       21.4276417281
  C        11.4713715950        1.3218536438       20.8727092395
  H         9.6000450028        2.7482349848       17.5238994842
  C        10.1609288204        5.5079212867       16.9786403313
  H         0.7713652978        4.5054362861       28.4709016510
  H         1.6040748270        6.0534587133       28.6247054366
  C         2.9153664859        4.4818297050       29.0275696731
  C         5.0576511109       -0.8411657950       32.6433304950
  H         6.6256889818        2.6910062074       18.8447340973
  H         6.5269598936        2.7137702867       20.5582594206
  C         5.1635318814        1.3688221406       19.5864807023
  H        11.2962762480        2.0158196085       21.6478831528
  H        11.8160126846        1.6856180031       19.8719072706
  C        12.6312158695        0.3015570782       21.0877089180
  C        10.0300729035        6.9107120078       16.8520585605
  C        10.6182220453        4.7824576285       15.7660241517
  H         3.1494256295        3.4992802012       28.6021351003
  H         3.8881928242        5.0006550363       28.9853380216
  C         2.6805490067        4.2956779074       30.5952633300
  H         5.3342514934       -1.9460903614       32.6390076339
  C         4.7335601486       -0.4173573000       33.8889639822
  H         4.4294557263        2.1146906838       19.8023734553
  H         5.1112949774        0.6526077903       20.3970131698
  C         4.8330134867        0.7373258396       18.1941569418
  H        12.4804618549       -0.1989762988       22.0224956903
  H        12.6003119174       -0.4225618494       20.2847291025
  C        14.0623961958        0.8884445852       21.0556660124
  N         9.6738719948        7.8186364122       17.8620684865
  C        10.3126238721        7.5425664509       15.6607420127
  C        11.0958117418        5.4859939837       14.6451241785
  H        10.5375230193        3.7130320690       15.5900017990
  H         3.1353515429        5.0268861937       31.1659856860
  H         1.6636614391        4.3426389384       30.8885549498
  H         3.0395189703        3.3681363704       30.8842298410
  S         4.2228205074        1.1893078608       34.3583365295
  C         4.7319133503       -1.4682299448       35.0155355378
  H         5.4234929179        1.2427063162       17.4839350878
  H         5.2025750519       -0.2768548152       17.9978248815
  C         3.3524473142        0.7054496022       17.6078772105
  H        14.1336934211        1.5082751574       20.1443993775
  H        14.7816491073        0.0825318633       21.1425097836
  C        14.2863463881        1.6716097265       22.3168117777
  S         9.7560485773        9.3678905395       17.2405877952
  N        10.2126909115        8.9663641809       15.7784747343
  C        10.8746599821        6.9328317416       14.5458451701
  H        11.6025132369        4.9274182603       13.9324586010
  C         4.1845828006        0.4996860623       36.0021567810
  N         4.3535983886       -0.8187657806       36.1487452227
  O         5.0524185695       -2.6179751766       34.8599375784
  H         3.3256127790        0.5510541349       16.5347399043
  H         2.9440732321        1.7074685225       17.6864475145
  C         2.5265671717       -0.2794564779       18.4550062542
  H        13.4473609890        2.3965438120       22.5143399711
  H        14.3186027054        1.0118431341       23.2444598971
  C        15.6462993237        2.3770397853       22.3382365330
  C        11.2609747774        7.8276410528       13.5156331726
  S         3.8224872613        1.3575784754       37.4629044223
  C         4.3073813632       -1.4006565453       37.4433812478
  H         2.5843512540        0.0375808689       19.4894157039
  H         1.4327454776       -0.1391795598       18.1906303715
  C         2.7730535364       -1.8418560516       18.3322500212
  H        15.5914960742        3.1962444493       23.0683621119
  H        15.6443795531        2.9348859315       21.4405681615
  C        16.8813207880        1.4419757283       22.4939622887
  H        10.8238614620        8.8078721354       13.6243497187
  C        11.8401737906        7.6350461620       12.3032329965
  H         3.5868230543       -1.0424902215       38.2416831067
  H         3.9115364817       -2.4106474311       37.2280299093
  C         5.7404484019       -1.4229573705       38.1007328904
  H         1.9440806110       -2.4442380725       18.8535338928
  H         3.7078855591       -2.1290346189       18.8914118600
  C         2.7931166959       -2.2405028822       16.8783750031
  H        16.6419301969        0.7405480523       23.2795333327
  H        16.9512766061        0.7691255277       21.6285579686
  C        18.0805751626        2.2750385067       22.7652199196
  S        12.4548443582        6.1312900000       11.7442023615
  C        11.9565642536        8.7458635701       11.3100486969
  H         5.6947235346       -1.0323442919       39.1128724882
  H         6.2295388357       -2.4156618168       38.1002394126
  H         6.4724762321       -0.8437514633       37.4976695710
  H         2.3488436950       -3.1808752963       16.7135707772
  H         3.8534230709       -2.1030724327       16.4696860727
  H         2.1562930483       -1.6042549755       16.2286849183
  H        17.7504550712        2.8855977634       23.6432094934
  H        18.3388207616        3.0767691451       22.0376896252
  H        18.9019261180        1.6437125886       23.2361710701
  C        12.8605570343        6.9407762374       10.2558784413
  N        12.6213280732        8.2820070246       10.2542816244
  O        11.7518642576        9.9335188839       11.6342836699
  S        13.4726679543        6.2424190320        8.8185659690
  C        12.8696528742        9.1385042693        9.1358785836
  H        13.0036411983       10.1365718218        9.6365309131
  H        13.7670319091        8.9876785227        8.5924803649
  C        11.6574845061        9.1985097363        8.2445109081
  H        11.2779780767       10.2147571366        8.0269215074
  H        11.7659013544        8.8668612503        7.2041494166
  H        10.9206333336        8.5271239264        8.6166144477
  H        23.0441652986        9.1984274979        3.2574595198
  C        22.8823536808       10.1884523487        3.6802287599
  H        23.4963384732       10.8911197076        3.0082722190
  C        23.3316861628       10.2467191249        5.1342039861
  C        21.4201320807       10.3111751070        3.4280750618
  C        22.4445847598       10.3349740080        6.3345969063
  H        23.7863858512        9.2704198675        5.2288403598
  H        24.2113847016       10.9039158042        5.1925584165
  H        21.2657865450       10.2964869581        2.3864393417
  H        21.0852278008       11.2087799082        3.9291572476
  H        20.8776281966        9.4370825122        3.9392968714
  C        21.6670547927        9.0460335855        6.6961725687
  H        23.1219101000       10.4719116342        7.2260609443
  H        21.7544128511       11.1896625687        6.2169128036
  C        20.7367155293        9.1195588132        7.9543630493
  H        22.4061209994        8.2905491556        6.8495696917
  H        21.0623135746        8.6412179302        5.9017648634
  C        19.5106181866       10.0154417481        7.7160125208
  H        21.4056013712        9.5308614796        8.7556783447
  H        20.4342351480        8.2105189641        8.4054491902
  C        18.1603692057        9.3327793221        7.2582323268
  H        19.3326664269       10.5134941015        8.6962431756
  H        19.6389181991       10.8660963495        7.0414964374
  C        16.9780075592       10.3300061788        6.9513327276
  H        17.7807426533        8.6895613975        8.0475389768
  H        18.4218028502        8.6849038383        6.3857574974
  C        17.3573909535       11.6837167197        6.3178888907
  C        16.5303826563       11.0081426625        8.1925309776
  C        15.7901997493        9.6717604409        6.1564777510
  C        17.1856952294       12.7599014994        7.1732488953
  C        17.8704059480       12.0991378479        5.1200540679
  C        16.6514200956       12.3161633774        8.3705101996
  C        16.0963537273       10.3405403051        9.3329790481
  H        16.2190057331        9.3237882509        5.2231871120
  H        15.5096773267        8.8758886765        6.8729531674
  C        14.5696002569       10.5879678510        5.9102825972
  S        17.5229142831       14.3104185692        6.4236313368
  C        18.0540932074       13.4439598212        5.0225623035
  H        18.1693707209       11.3099015713        4.4124922087
  C        16.2415722523       12.8895221017        9.5752757358
  H        15.9113318236        9.3171267171        9.1665026352
  C        15.7535547017       10.8621207230       10.5187372527
  H        14.9779006838       11.4121151074        5.3280209220
  H        14.1954971496       10.9937081544        6.8577275365
  C        13.4575575834       10.0983858960        4.9340981827
  C        18.5050110952       14.2552788987        3.8238162484
  C        15.7637582753       12.1824362770       10.7264472274
  H        16.0954458317       13.9711444644        9.5987491998
  C        15.3348628836       10.3893838167       11.6838285447
  H        12.7192860257       10.9012582122        4.9170638185
  H        13.0746723727        9.2019629144        5.3406912413
  C        13.7661243919        9.7353037973        3.4865681592
  C        18.4303806769       15.6474509487        3.6502242816
  C        18.8867075408       13.4918061271        2.6544419931
  C        15.3375298761       12.8044120882       11.9649872912
  C        15.0768055880       11.4234414012       12.6124342060
  S        15.0833371560        8.8106043715       12.3798723753
  H        14.3071025532        8.8172815306        3.4162041106
  H        14.6650830757       10.3467728364        3.1658875385
  C        12.6140859412        9.8622476298        2.5288013035
  N        17.9707594025       16.6006510661        4.5765388935
  C        18.7264028043       16.2569346424        2.4430618969
  C        19.2597532722       14.0925348311        1.4621923893
  H        18.8977164635       12.3844294890        2.6930766861
  C        14.0220096757       13.6382176276       11.8422931634
  C        16.4426432969       13.7106175349       12.6420633606
  C        14.7280835089       10.8576639733       13.8773787755
  C        14.5667107826        9.5003419669       13.8469399715
  H        11.6706835918        9.4001708621        2.9234958563
  H        12.3232832594       10.8895475708        2.3697366958
  C        13.0350880553        9.3433610930        1.0886536973
  S        18.0340194053       18.0953466306        3.9102399735
  N        18.5641731452       17.6493316358        2.4390668505
  C        19.2578663267       15.5630470043        1.3263662956
  H        19.5985507678       13.5457705149        0.6090884643
  H        14.1308177297       14.4393835128       11.1112732806
  H        13.9292279878       14.0238238496       12.8576295365
  C        12.7750759057       12.9099282290       11.5220267871
  H        16.9058746110       14.3763271388       11.9297946955
  H        15.9601642891       14.2498479304       13.4333015557
  C        17.6571454864       12.9207693724       13.1463699970
  H        14.4645640541       11.5300234128       14.7198768095
  C        14.1319755800        8.6250829902       15.0421568078
  H        12.1250199546        8.9730757002        0.6200507343
  H        13.6938597716        8.4805481174        1.2081840776
  C        13.8062475127       10.2955600425        0.2288465581
  C        19.4185422607       16.3475882386        0.1429060228
  H        12.9302133311       12.5509667714       10.5754287956
  H        12.5619640208       12.1320501546       12.2333150295
  C        11.5729615812       13.8803507173       11.4043733901
  H        18.1731527969       12.4388202330       12.3199840534
  H        17.2868968610       12.1527328791       13.8238566107
  C        18.7073673934       13.7081592847       13.9283749025
  C        14.2324401258        7.2130359736       15.0858251081
  C        13.5198193996        9.2519932317       16.2509174814
  H        13.7613490116       11.3446068823        0.5464865502
  H        14.8753481293        9.9643166123        0.1892410181
  C        13.0750801568       10.3216655954       -1.2044628352
  H        19.4907136169       17.4409828235        0.1512815403
  C        19.6092017806       15.9612740660       -1.1783038977
  H        11.6679409988       14.6838283508       10.6241264509
  H        11.3735325190       14.4169913909       12.3907440892
  C        10.3544854756       13.0927403351       10.8515684069
  H        18.8709161208       14.6750208169       13.5278962767
  H        18.4592126141       14.0124117853       14.9176375944
  C        19.9876750422       12.9234113723       14.0115203211
  N        14.8462433891        6.4392424294       14.0768925843
  C        13.9805536374        6.4925468669       16.2732623568
  C        13.1882086437        8.5241481883       17.3012870394
  H        13.3126898662       10.3201664128       16.2028611726
  H        12.0544067012       10.7077128143       -1.2201827672
  H        13.0985260683        9.3326887804       -1.6342723711
  H        13.6254140234       10.9970894486       -1.7913291054
  S        19.7660850430       14.3724876999       -1.8329216390
  C        19.7105870311       16.9940679717       -2.2706244629
  H        10.7412011807       12.1346696314       10.4286087290
  H         9.6392540106       12.8776668702       11.6689795711
  C         9.6159212303       13.7750220536        9.7169110656
  H        20.2950219459       12.4790238691       13.0804976127
  H        19.8636061320       12.1433146795       14.7193715577
  C        21.2285221821       13.6808294987       14.5199978282
  S        14.6742796463        4.9044653706       14.5723019158
  N        14.2736238372        5.1242637657       16.0835377214
  C        13.3805773239        7.0476262473       17.4214460019
  H        12.8319383040        9.1342611713       18.1175557962
  C        20.1224611292       15.1194513286       -3.3718152470
  N        19.9524143563       16.4380987490       -3.4471255351
  O        19.5052279853       18.2036400052       -2.1515980826
  H         9.2306662057       14.7012597703       10.0778298062
  H        10.3049330499       13.9741634010        8.9244870071
  C         8.4816532782       12.9755004140        9.1404998090
  H        20.9533245752       14.1285332398       15.4627717678
  H        22.1350254060       12.9504879613       14.7144373510
  C        21.7524316967       14.7698123960       13.4946805126
  C        13.0950043069        6.2637514519       18.5462049578
  S        20.3615135891       14.1237443982       -4.8266174263
  C        19.9953130060       17.2978515524       -4.6592847100
  H         8.9444591781       12.6695667196        8.2145597972
  H         8.2115893071       12.1413720260        9.7678455009
  C         7.2303491014       13.8308861261        8.8022184752
  H        20.9308306154       15.4412597854       13.1552644147
  H        22.0533065301       14.2961375118       12.5264916050
  C        22.8841270083       15.6718413694       14.0218262907
  H        13.2787349496        5.1990983231       18.4472686238
  C        12.8349670449        6.6717341591       19.8947497890
  H        20.9005930031       16.9925663321       -5.1570805827
  H        20.3716998252       18.2914861036       -4.3335957953
  C        18.6285847739       17.2119853378       -5.4459164418
  H         6.9472421372       13.4018711282        7.8285280153
  H         7.5809364113       14.8431373188        8.5633664640
  C         6.2490552937       13.9345169965       10.0242844477
  H        23.5620375703       14.9449515463       14.5120711355
  H        23.3837738847       15.9695534475       13.1630667768
  C        22.4603639168       16.8938181225       14.9413125803
  S        12.3943064227        8.1916466689       20.4293347301
  C        12.8423423111        5.6021260452       20.9090938063
  H        17.9253117458       17.9705055933       -5.2143660429
  H        18.1160896702       16.2532818928       -5.2044067043
  H        18.8006558192       17.2054986757       -6.5276437745
  H         6.1182269546       13.0620076247       10.5746310718
  H         6.6259873200       14.7405985468       10.7590905403
  H         5.2375541081       14.1550262350        9.6247039464
  H        23.3816042834       17.3868867798       15.4288209238
  H        21.9777365980       17.7102212578       14.4045699030
  H        21.7920250742       16.5499628773       15.7132512399
  C        12.1764321231        7.4716432331       22.0396492493
  N        12.2530455552        6.0781990271       21.9978355292
  O        13.0580981796        4.4160577188       20.6632580766
  S        11.3240714737        8.2221627595       23.3759022206
  C        12.2336033790        5.2526728895       23.1933517923
  H        12.2051901824        4.1889299987       22.8139781529
  H        11.4141850303        5.5095474071       23.8269104694
  C        13.5961185919        5.3254127542       23.9250463651
  H        13.9426916177        4.2608973247       24.0084996272
  H        13.4738344590        5.6837729966       24.9541286296
  H        14.3530249202        5.9106011394       23.4254057497
