352
 i =    17800, time =    17800.000, E =        25.0094116004
  H        11.1538835369        8.0931554135       31.2525989023
  C        11.3140683948        7.2088682696       31.8310454552
  H        12.4325532461        7.1032263289       31.6467608183
  C        10.6878601767        5.9490365653       31.1550274685
  C        10.8727369229        7.2679262570       33.3022836340
  C        11.0229557340        5.6734407072       29.6705406957
  H        11.0781081625        5.0855841904       31.7177012204
  H         9.6219954524        6.0440397238       31.3278162367
  H         9.8618508611        7.6005776604       33.3933874528
  H        10.8642123728        6.3168571139       33.8423872202
  H        11.5282320588        7.8919808680       33.8319807116
  C        10.1250552740        6.5349770114       28.6655494826
  H        10.5938638946        4.6911628096       29.4898598253
  H        12.1017858311        5.6104069368       29.4540651528
  C        10.5738988196        6.4641033045       27.2748726127
  H         9.0614720067        6.3655832896       28.6872481826
  H        10.1589049285        7.6010817175       29.0368357548
  C         9.6841729939        5.6174677092       26.3870683923
  H        11.6017333663        6.1419731141       27.2220356875
  H        10.6319332107        7.4200589160       26.8073231862
  C         8.4304114778        6.2840262207       25.9721505402
  H        10.2667265452        5.3918693362       25.5601459706
  H         9.5015802170        4.6035867904       26.8704029690
  C         7.2702767744        5.4175401474       25.4136520788
  H         7.9826811118        6.8071534214       26.8795883050
  H         8.6544025921        7.0567542037       25.2148429576
  C         6.9186742885        4.1353665486       26.1427481441
  C         7.6635401044        4.5919226124       24.2634323945
  C         5.9161554613        6.2269671185       25.1085292118
  C         7.2651808594        2.9648408904       25.5271086163
  C         6.2393568501        3.8454430118       27.3589531973
  C         7.7676859213        3.2600056377       24.2617374641
  C         8.1970722561        5.2181625147       23.1560369096
  H         6.1803175261        6.9044836443       24.2940094457
  H         5.7653821076        6.9627057587       25.8340618834
  C         4.6210278500        5.5682883014       24.7494301996
  S         6.6693169476        1.5444410556       26.2724425101
  C         6.1171922895        2.4802512724       27.6147050341
  H         5.8897187372        4.6114284951       28.0349677979
  C         8.2172271615        2.6806857484       23.0790242758
  H         8.0803866614        6.2919126839       23.1929323788
  C         8.5846393014        4.7576994650       21.9822606173
  H         4.7981058249        5.2786242629       23.6928903815
  H         4.6307271467        4.5919896614       25.2800597911
  C         3.4360153401        6.4458577644       24.9909889481
  C         5.6824847684        1.8448698062       28.9040830137
  C         8.6508039677        3.3940257529       21.9495669183
  H         8.2688799997        1.6311595272       22.9225900745
  C         9.0053855672        5.0706336287       20.7067585299
  H         2.6168892771        6.1495992620       24.2994584928
  H         3.8057308965        7.4586736274       24.7591152371
  C         3.1136614779        6.5091848224       26.5030509268
  C         5.6709126407        0.4285948652       29.1139495137
  C         5.4010807994        2.7240334658       30.1068569977
  C         9.0600987598        2.6689651323       20.7075313242
  C         9.1904488464        3.9437695077       19.8945434621
  S         9.1586526589        6.5358307459       19.8708154058
  H         2.7444589730        7.5377959340       26.7602397902
  H         4.0201762345        6.4167186235       27.0705674898
  C         2.0260785637        5.4934349104       26.9735698548
  N         5.8021310436       -0.6482766536       28.1371868762
  C         5.4070731353       -0.0950242466       30.4191613219
  C         5.1406576849        2.1464103149       31.3489988245
  H         5.3065780423        3.8001295288       30.0564258009
  C         7.9509884161        1.8313184532       20.0977476101
  C        10.4008883315        1.8237186085       20.7294518066
  C         9.4391638436        4.2887810908       18.5537296499
  C         9.4644275744        5.6575354782       18.3540679478
  H         1.1109933157        5.6030922964       26.3291924021
  H         2.5492090853        4.4760411449       26.7534633135
  C         1.6568197333        5.5930234243       28.4754323230
  S         5.7864333266       -2.0166884592       28.9515017040
  N         5.5073739571       -1.4928734547       30.4432400712
  C         5.1108899705        0.6831480660       31.5597445472
  H         4.9480203647        2.8336227476       32.2335587817
  H         7.7131294704        1.0700737971       20.9036791495
  H         8.1938350631        1.1984442491       19.2662790899
  C         6.6335162856        2.5416921928       19.7881573918
  H        10.4752152787        1.3049957408       19.8108956051
  H        10.2953695164        0.9792991183       21.3669264194
  C        11.6881687466        2.5372689365       21.0075468682
  H         9.5858054003        3.5403928914       17.8574226301
  C         9.8606472817        6.3717019506       17.1107870523
  H         0.9346858078        4.8168558368       28.7395499330
  H         1.0334267726        6.5384404224       28.7048245586
  C         2.7664179988        5.7024720425       29.5184047623
  C         4.9569620714        0.0831643754       32.8502163289
  H         6.8561230467        3.2222499435       18.9476005186
  H         6.2683163106        3.0355752211       20.6892873716
  C         5.5862074527        1.4531402730       19.3005037196
  H        11.6462558253        2.9323630316       22.0227364342
  H        11.7050747277        3.3691982737       20.3599103351
  C        12.9188290427        1.5895668792       20.7935240379
  C         9.9803103514        7.8384389614       16.9251152498
  C        10.1786286388        5.5984828261       15.8672870346
  H         3.5113763367        4.8422347041       29.5351559501
  H         3.2958919634        6.6352433455       29.1340997344
  C         2.1880091962        5.7238707619       30.9376735605
  H         4.9136223808       -1.0137615901       32.8470129347
  C         4.7076226937        0.6207628187       34.1400552503
  H         5.3754044609        0.7483196793       20.0366251500
  H         5.9882169150        0.8668899263       18.4653166106
  C         4.3974809861        2.2430204469       18.8028348787
  H        13.0865555924        0.9121178223       21.5986756789
  H        12.7584115431        0.9854322415       19.8843497821
  C        14.2331362317        2.4802108076       20.6489430424
  N         9.5862849043        8.7983462565       17.9457860851
  C        10.4021714943        8.4213032929       15.7300299658
  C        10.5212329187        6.2316928878       14.6814753012
  H        10.1628222646        4.5208772822       16.0482403987
  H         1.1635678629        5.9903066896       31.0510358969
  H         2.0887536255        4.8366704274       31.4567620339
  H         2.8104347798        6.2970607271       31.6264780194
  S         4.2858801361        2.2066784740       34.6415689257
  C         4.7614820725       -0.3399519324       35.3121472474
  H         4.1794114041        2.9451520832       19.6095865889
  H         4.7523098399        2.8027159527       17.9361893973
  C         3.1906946724        1.3542232809       18.5024512831
  H        13.9072826269        3.4400045063       20.1343201457
  H        14.9857440392        1.9371504031       20.0471363312
  C        15.0219845739        2.7909138669       21.9534623483
  S         9.8574677700       10.2746208283       17.3451077846
  N        10.5287399235        9.8157142400       15.9177416281
  C        10.6779527450        7.7433746514       14.5687776494
  H        10.6844368532        5.6060830418       13.8232093040
  C         4.1449001010        1.5323270704       36.2579244030
  N         4.4022623357        0.2096693883       36.4514081007
  O         4.9302207568       -1.5716317543       35.1309015731
  H         2.3998182053        2.0250075980       18.1221244200
  H         2.8767075141        1.0085764425       19.4919965116
  C         3.3812142385        0.1549260330       17.6194855635
  H        15.8331998753        3.4784324980       21.7669833392
  H        14.2942056096        3.2660501341       22.6407162964
  C        15.6288822826        1.5324413762       22.6438959177
  C        11.0306132860        8.4730793093       13.4030748631
  S         3.5349255790        2.4725729846       37.5771678196
  C         4.4085298340       -0.5026961322       37.7398610292
  H         3.4972819523        0.5246329595       16.5971218445
  H         4.3289721994       -0.2528030322       17.8049438893
  C         2.3792027860       -1.0224651211       17.9212252721
  H        15.8790532499        0.8391364422       21.8495954149
  H        14.8502190595        1.1708763564       23.2784245914
  C        16.9067452603        1.9359159315       23.4007032480
  H        10.6084491207        9.4724311204       13.5056747385
  C        11.5904888238        8.1591578025       12.2223943144
  H         3.9573506663        0.0886156615       38.5179600502
  H         3.8808124102       -1.4270209497       37.7385248704
  C         5.8676490407       -0.7587169372       38.2058253203
  H         1.3274109742       -0.6403763064       17.9020666407
  H         2.5889935713       -1.5435769357       18.8538980385
  C         2.4407177333       -2.2020185127       16.9499602525
  H        16.5840712650        2.8318862889       23.9424124047
  H        17.1856085325        1.1954988329       24.1037313855
  C        18.0675104185        2.3667144281       22.5047536850
  S        12.2855757467        6.6157438865       11.8861409896
  C        11.6024507054        9.1680736730       11.1447749641
  H         6.0381472247       -0.8351830300       39.2470871402
  H         6.2878721602       -1.6888824150       37.8418845669
  H         6.4488515837        0.0261220383       37.6762117579
  H         1.8406906828       -3.0489697317       17.2618438833
  H         3.4591433738       -2.5201169712       16.8033285074
  H         2.2251818682       -1.8905702180       15.9255228722
  H        19.0010348723        2.2612275300       22.9699294268
  H        18.0782632146        3.3920805843       22.1422051706
  H        18.0962095578        1.6337822786       21.6573701755
  C        12.6584703549        7.2975267822       10.2839529231
  N        12.2540367771        8.5887289847       10.1443428605
  O        11.2583659102       10.3486661515       11.2912234168
  S        13.1389351499        6.4260069651        8.9102077491
  C        12.2749607204        9.3416175180        8.8718656550
  H        12.5335970109       10.3459780105        9.0903497317
  H        12.9602183333        8.8646008616        8.2078241601
  C        10.9350066919        9.2827110484        8.1487699125
  H        10.8928565799       10.0186803527        7.4099696728
  H        10.7895921958        8.3216036200        7.5614867060
  H        10.0480981143        9.4540030417        8.7516458541
  H        20.8868111193       11.5128497726        3.3464025465
  C        21.4139605504       10.5205801047        3.3488853603
  H        20.5584893746        9.8052448263        3.5183351365
  C        22.4278615076       10.3593095970        4.4981640989
  C        22.1037698000       10.2377624886        1.9411554030
  C        21.7993972284       10.5927189595        5.8666928286
  H        23.0261950335        9.4872474222        4.5839252800
  H        23.1347285065       11.2155356641        4.2429812207
  H        23.1691450528        9.8852666733        2.1793890527
  H        22.2028717259       11.1152458855        1.3451277570
  H        21.5254277707        9.3253567294        1.4992108412
  C        21.0910749051        9.3527272465        6.3699273069
  H        22.6129892515       10.8772244081        6.5528363906
  H        21.1143142415       11.4667112647        5.7830286078
  C        20.3390332229        9.5991735451        7.6798950766
  H        21.9050687335        8.7270272199        6.5798702763
  H        20.3675878614        8.9095831791        5.6574278891
  C        19.1395055044       10.4473036260        7.5202006629
  H        21.0163619602        9.9592460194        8.4842855678
  H        19.9406969269        8.6733276317        7.9715698855
  C        17.8997885415        9.5822453197        7.2056064821
  H        18.9553648367       10.9489015169        8.4734131580
  H        19.3340953337       11.3018541334        6.9013240042
  C        16.5649176887       10.3850189299        7.1322656415
  H        17.6323250907        8.9209500143        8.0176291051
  H        18.1119859785        9.0480726631        6.2875412504
  C        16.9272114147       11.7360228669        6.4149031750
  C        16.1840741854       11.1311689403        8.3728677804
  C        15.3466877175        9.6842444113        6.4496878018
  C        16.6937685867       12.8872367191        7.2020407645
  C        17.4225686371       12.1038785889        5.1041218071
  C        16.2267352874       12.5187857425        8.4092563833
  C        15.6956414872       10.5062110978        9.4850274113
  H        15.6472006148        9.1556426408        5.5705961849
  H        14.9842446472        8.8311892771        7.0494126318
  C        14.1158954782       10.6107651384        6.2088544639
  S        16.9826967282       14.3429005041        6.4105953641
  C        17.4329893937       13.4410878931        4.9616430860
  H        17.5133993592       11.3404231917        4.3426883532
  C        15.8371285944       13.1659754813        9.5422472251
  H        15.6614420816        9.4631908594        9.4693985555
  C        15.4130589880       11.1358755559       10.6512725636
  H        14.3881256011       11.7004297148        6.2502151237
  H        13.4932978655       10.6405707397        7.0451158379
  C        13.2265399884       10.3020850801        5.0096655683
  C        17.8896534612       14.1321210722        3.6836154135
  C        15.4610794262       12.5128849008       10.6944350142
  H        15.7098897939       14.2490650837        9.4970165136
  C        15.0242380408       10.8051079478       11.9124724614
  H        12.3385303457       11.0245687583        4.9522100427
  H        12.9165199660        9.2498478985        5.1198188741
  C        13.7806014274       10.5300181237        3.6757210176
  C        17.8453371435       15.5294451835        3.4473707228
  C        18.2837029974       13.3022977188        2.4383178617
  C        15.0841951188       13.2485796753       11.9575846382
  C        14.7597047336       11.9133218205       12.6342047869
  S        14.8079372438        9.3478081381       12.7540794870
  H        14.8572508358       10.4379231082        3.5007239331
  H        13.6498322285       11.6210539060        3.4461894737
  C        12.9426156587        9.6828591130        2.7473110652
  N        17.6356566539       16.5288962117        4.4322044470
  C        18.0672363836       16.1035779757        2.2076279466
  C        18.6134079950       13.9116683993        1.1956580887
  H        18.2391763536       12.2024915640        2.5518165068
  C        13.7994613958       14.2126061544       11.9914504438
  C        16.2884688625       14.0040624221       12.6697987178
  C        14.3461183357       11.5246471674       13.8787091510
  C        14.3528369222       10.1817634393       14.1407257187
  H        13.1424939958        8.6649004172        3.1207537274
  H        11.8737012340        9.8593152958        2.7724283588
  C        13.5112642782        9.8398763539        1.4171103625
  S        17.8206016578       18.0208147048        3.7151350389
  N        17.9431633708       17.5065089932        2.2167217967
  C        18.4780103246       15.3998205233        1.0443633506
  H        18.8732385986       13.2751327564        0.3465534449
  H        13.8650471992       14.9602121729       11.1458113202
  H        13.7303452305       14.7424136620       12.9410675268
  C        12.4480243751       13.5880126316       11.6132153855
  H        16.4306542901       14.8594555524       12.0125415670
  H        15.9999461477       14.3466295157       13.6739776224
  C        17.5914076436       13.1739894975       12.7906176336
  H        14.1580673319       12.2824092377       14.6074453464
  C        13.9723117532        9.4494074750       15.4147371720
  H        14.3275045051        9.1896017240        1.3029290425
  H        13.9771792126       10.8314923943        1.3545127888
  C        12.4927080829        9.7395023488        0.2554770266
  C        18.6261725832       16.1898247453       -0.1423899301
  H        12.4034562525       13.1979448782       10.5719403191
  H        12.2872444236       12.7876089064       12.3000063488
  C        11.2722053896       14.6138312761       11.5334476931
  H        18.1271522186       12.9190997114       11.8625265316
  H        17.4909236041       12.3117554711       13.4475830240
  C        18.5270411944       14.1010427159       13.6475100170
  C        14.1017183873        8.0361070934       15.5811989676
  C        13.4598442027       10.2274183940       16.5762576746
  H        11.9208017600        8.8523887239        0.4628697827
  H        11.6846594792       10.4683869229        0.4177546994
  C        12.9438168602        9.9126926337       -1.1858253666
  H        18.6360891780       17.3300180049       -0.0657221354
  C        18.9361818413       15.8127089278       -1.4254915288
  H        11.6108644503       15.4311345653       10.8185497573
  H        11.1521925602       15.0213928830       12.5383008925
  C         9.9850190707       13.8562160333       11.1698246605
  H        18.5750650449       15.0338947887       13.1622494349
  H        18.0057197550       14.1266998843       14.6375521042
  C        19.9412082706       13.6085544178       13.8484309957
  N        14.5599643011        7.0835420187       14.6600477274
  C        13.6907728060        7.4123230878       16.8001032603
  C        13.1454754493        9.5899276336       17.7910920012
  H        13.3297985525       11.3257848087       16.5197119050
  H        14.0117106245        9.8310401099       -1.3685392346
  H        12.7331089007       10.9496970445       -1.5643454436
  H        12.4264940234        9.2011142431       -1.8413125628
  S        19.5232805135       14.2701853840       -1.9459201376
  C        18.9950239488       16.8468751002       -2.4657219090
  H        10.2135712388       12.8248742780       11.1541006825
  H         9.2368456148       14.0084499962       11.9239593446
  C         9.4689488804       14.2187444491        9.8448596086
  H        20.5103950244       13.4011102017       12.9257227051
  H        20.0395194136       12.7387773447       14.5343257026
  C        20.8235702567       14.7007076989       14.4748164312
  S        14.4693350111        5.6048007679       15.2632865368
  N        13.8531099423        6.0180394932       16.7114201407
  C        13.1954291626        8.1013800944       17.9190810817
  H        12.7432552047       10.2810223893       18.4992501517
  C        19.7324525240       14.9223991511       -3.4844498823
  N        19.4717196203       16.2513911701       -3.5877715561
  O        18.7503340781       18.0347229662       -2.3361000249
  H         8.9692519933       15.1478461453       10.1213113422
  H        10.2723396155       14.4855307263        9.1776837944
  C         8.4558977904       13.1699508568        9.3801132597
  H        20.4298160092       15.0431694084       15.4131787856
  H        21.7406307609       14.2198423263       14.8399899034
  C        21.0288598916       15.9179190469       13.5528142145
  C        12.9042177031        7.3763521164       19.1187317941
  S        20.2230211766       13.9248975306       -4.7943768608
  C        19.6716504569       16.9213283354       -4.8323510432
  H         9.0167448323       12.4655979573        8.7676171878
  H         7.9893369940       12.6663238317       10.2319066771
  C         7.3495287448       13.7409218181        8.5981112365
  H        20.1016101187       16.4797905428       13.6172393917
  H        21.2651362235       15.6921339757       12.4658710758
  C        22.2744068568       16.7099616024       14.0636143966
  H        13.1968777983        6.3239611609       19.0844665380
  C        12.4614381891        7.7328620944       20.3788657779
  H        20.5711545631       16.7575697817       -5.4032971936
  H        19.7679410970       17.9446709329       -4.6235931587
  C        18.3938062856       16.7732012161       -5.6880567879
  H         7.1379358752       12.9106661139        7.8537376382
  H         7.5945795628       14.5911699145        7.9636494541
  C         6.0823744248       13.9280265769        9.4192566738
  H        22.8945757506       16.0718721863       14.6772559330
  H        22.7754294260       16.9859601799       13.1285117438
  C        21.8593109858       17.8357452024       14.9676746544
  S        11.8815675462        9.3243280597       20.7451811171
  C        12.5438424398        6.7783755190       21.4875545600
  H        17.8164833349       17.7054002866       -5.7803320560
  H        17.6806939050       16.0095657187       -5.4792896090
  H        18.8927395616       16.5086288172       -6.6094604787
  H         5.8005751618       12.9232234932        9.8816307964
  H         6.1569282052       14.7947169044       10.0355811883
  H         5.2097616332       14.2352316158        8.7509691792
  H        22.7010814496       18.4804789334       15.0888244270
  H        21.0541991659       18.4322519244       14.6214858715
  H        21.5396989966       17.3564383874       15.8970592587
  C        11.6540009178        8.6916376541       22.3614877560
  N        12.0203472884        7.4237293134       22.5786455722
  O        12.6482101550        5.5870005149       21.3307064604
  S        11.2256620918        9.6572521223       23.7142186938
  C        12.1677153188        6.6938543076       23.9118141257
  H        12.1892744174        5.6080298426       23.7521094241
  H        11.3208419320        6.8895741046       24.4837184255
  C        13.4264188897        7.0316941292       24.6859912709
  H        13.7237077874        8.0733209762       24.6211838959
  H        14.3765376771        6.6070012591       24.1949550335
  H        13.4622952037        6.5997276855       25.6957897941
