352
 i =    43400, time =    43400.000, E =        25.5201238365
  H        12.0789845475        7.0704090213       32.1353292837
  C        11.7092406289        6.1590882932       32.0084458558
  H        12.6161603409        5.5453649908       31.6899680439
  C        10.5936291049        6.0221169150       31.0470084035
  C        11.1952222398        5.7060036421       33.2927981509
  C        10.9143914797        6.3163451726       29.5696134132
  H        10.0647904592        5.0355889055       31.0237300087
  H         9.8392209817        6.6330391314       31.5128342164
  H        11.8005935655        6.1462324106       34.0955455850
  H        10.1913483206        6.0537494962       33.4149043561
  H        11.2737522041        4.6334293506       33.4283304863
  C        10.3076207569        5.2674695304       28.5940407508
  H        11.9473968288        6.3099970358       29.3664532294
  H        10.5086868163        7.2920517460       29.1740967673
  C        10.7222720658        5.6566009942       27.2051533608
  H        10.7360036290        4.2334034288       28.8489275754
  H         9.2713677198        5.2611069028       28.6218099691
  C         9.9455400796        4.9696850363       26.1233962683
  H        11.7199999215        5.4983351187       27.1250158112
  H        10.6580396642        6.7408589459       27.2107380292
  C         8.5359819013        5.6621110459       25.9314084178
  H        10.4576663003        4.8763062483       25.1635590213
  H         9.7901901346        3.9838879056       26.5594378333
  C         7.4376601268        4.9256769542       25.0731338572
  H         8.0710457066        5.8985087051       26.8509276538
  H         8.7469522971        6.5687386791       25.3632469623
  C         7.1112907681        3.6136738514       25.7908353632
  C         7.8646435450        4.1840521125       23.8663460556
  C         6.2336620471        5.8001364333       24.8397602781
  C         7.3997601573        2.4409663087       25.0796086883
  C         6.5436553837        3.3485469762       27.0091908635
  C         7.8772690629        2.8229225149       23.8295753401
  C         8.3944812982        4.8695047729       22.7509779313
  H         6.4188075748        6.5924867739       24.1085691219
  H         6.0100142767        6.3025651337       25.7488313014
  C         4.9619702168        5.2074019053       24.4128891051
  S         7.1757746795        0.9750338763       25.9639865592
  C         6.6109768707        1.9520209055       27.2957896678
  H         6.3451799969        4.1408596251       27.7036909446
  C         8.4579771908        2.2615200771       22.7198383692
  H         8.3121415609        5.9708033940       22.7921830989
  C         8.9958153709        4.2664294448       21.6599847340
  H         5.2263174790        4.7348888599       23.4337774229
  H         4.7107241494        4.4377615320       25.1711599795
  C         3.6598390462        6.0527481187       24.3596122432
  C         6.1296370673        1.3516525628       28.5313315777
  C         8.9697993888        2.9675965239       21.6225765657
  H         8.3643478922        1.1635779543       22.6590386011
  C         9.4595852685        4.6684289976       20.4494754534
  H         2.9081887902        5.5249336844       23.8146790138
  H         4.0142670484        7.0424624509       23.9904731115
  C         3.1059029843        6.2706045504       25.7932286370
  C         6.1891977034       -0.0323389858       28.8170908548
  C         5.4868457945        2.1773501380       29.5511374525
  C         9.3716484171        2.2615082655       20.3332054330
  C         9.6000583639        3.6079175461       19.5886759298
  S         9.6820168151        6.2023133918       19.6672423203
  H         2.4734847723        7.1134771727       25.7750795685
  H         3.7676088178        6.5815644373       26.6206536979
  C         2.2616354504        5.1526984374       26.3425697771
  N         6.6689400903       -1.0204302060       27.9540158773
  C         5.7479391366       -0.5344479819       30.0201474037
  C         5.0723130047        1.6654268577       30.8192189998
  H         5.3328066473        3.2487714227       29.4900127163
  C         8.2794604487        1.4014993669       19.6997977501
  C        10.7341716701        1.5896387115       20.4587498716
  C         9.8857754342        4.0517901775       18.2949187465
  C         9.9089150727        5.4192550079       18.1816887707
  H         1.8271326136        4.5358653101       25.5594554448
  H         2.9041042737        4.4845407033       26.7591066711
  C         1.2304648637        5.5735057762       27.3412271716
  S         6.5359135328       -2.4461166347       28.7394022309
  N         5.8765866822       -1.9044156643       30.1052230033
  C         5.2809506339        0.2353542762       31.0706749814
  H         4.6631912483        2.3021405670       31.5568663953
  H         8.1687611846        0.4326982097       20.0767147130
  H         8.5911264330        1.1407082464       18.7293596330
  C         6.8754126543        2.1694158150       19.6709553107
  H        11.0309628079        1.2442734484       19.5159130447
  H        10.5181409685        0.6560647616       20.9742786295
  C        11.8248821502        2.4129767258       21.0479691988
  H        10.0937394777        3.3744169679       17.5081854213
  C        10.0911898880        6.2215679521       16.9294784869
  H         0.4747092010        4.7404553626       27.4310271075
  H         0.7284947023        6.4807835280       27.1438900515
  C         1.9762036956        5.6793246995       28.6036169399
  C         5.1031401908       -0.4286686246       32.3644631411
  H         6.9731073295        3.2894519021       19.7197716272
  H         6.3057802414        1.8648570527       20.5643537358
  C         6.0976031083        1.7030974809       18.4248909450
  H        11.7521485067        2.7944417422       22.1093366260
  H        11.9117446069        3.3501256455       20.4262965197
  C        13.2099162882        1.7531773936       20.9481067567
  C        10.2550524651        7.6833753085       16.8578877164
  C        10.1826718895        5.4983743041       15.6753107327
  H         2.5993991108        4.7835438943       28.8519299492
  H         2.6327174944        6.5072722090       28.5597074675
  C         1.0249620753        5.6864094409       29.9198478410
  H         5.6269243550       -1.4407369122       32.4973734696
  C         4.7981297734        0.0558532155       33.6047771192
  H         6.3836301012        0.7170241617       18.1544416772
  H         6.5217712869        2.4023871176       17.6841586190
  C         4.5754072826        1.8733547100       18.3678552175
  H        13.2144399606        1.1608291653       21.8409557268
  H        13.3116090221        1.0898669038       20.1032004587
  C        14.3289744929        2.7999085778       20.9292505976
  N        10.0170605060        8.6015725410       17.8979554737
  C        10.5266006005        8.2965755061       15.6197895441
  C        10.4467603983        6.1682261181       14.4845135707
  H        10.1881308180        4.4136706792       15.6236333160
  H         0.4377970543        4.7846792795       29.9804403694
  H         1.6050395934        5.8059550158       30.8008786703
  H         0.2802941597        6.4324471945       29.9007806788
  S         4.4499866686        1.6685836628       34.0371328142
  C         4.7000995230       -0.8713649588       34.8162257430
  H         4.1826244522        2.6140170192       19.0356104922
  H         4.2831199547        2.3025655085       17.3754679105
  C         3.8419431858        0.5017456077       18.5639444134
  H        13.8974220144        3.6734013193       20.3630688032
  H        15.1870992537        2.5503313520       20.4191280085
  C        14.6485216823        3.1666645577       22.3992693225
  S        10.2537238434       10.0814269889       17.2403454718
  N        10.6963767104        9.6480032726       15.7414626839
  C        10.7245233295        7.6083301973       14.4051986961
  H        10.4413052366        5.5552831615       13.4961310661
  C         4.2146805749        1.1311408872       35.7263843493
  N         4.2780703573       -0.2271563479       35.8773861414
  O         4.7706048406       -2.1083374796       34.7458443137
  H         2.8055603075        0.6447174598       18.8696375793
  H         4.2007358305       -0.1687769796       19.3450294954
  C         3.7797570518       -0.4239539190       17.2807628901
  H        15.0649982910        4.1899599875       22.2860822810
  H        13.6711540824        3.2063396473       22.9593210371
  C        15.4747224893        2.0823049436       22.9671784480
  C        11.0419123513        8.3471031946       13.2411842408
  S         3.7532595320        2.0725066583       37.1505810939
  C         4.3499813255       -0.8797441984       37.1780550534
  H         3.4420358523        0.0645614863       16.3903764597
  H         4.8118104110       -0.7077690831       17.0799508882
  C         2.7959252177       -1.6250091799       17.5761001146
  H        15.4824296551        1.2437581409       22.2922981544
  H        15.0802785850        1.6362656114       23.8826193650
  C        16.8494440455        2.5411561484       23.2642969900
  H        10.8418808104        9.4125518061       13.2340004468
  C        11.4605156058        7.9554538077       12.0047648855
  H         3.5500778245       -0.4775708004       37.8456655279
  H         4.1629443654       -1.9436067378       36.9860153878
  C         5.8215958381       -0.8019263877       37.7324806117
  H         2.8994132879       -2.0970670321       18.5821629109
  H         2.9523741827       -2.3858512207       16.8140858263
  C         1.3669352195       -1.1759901327       17.4468680980
  H        16.8011277358        3.4742386714       23.8023730062
  H        17.1775639642        1.8610444387       24.0157711800
  C        17.7713049287        2.7206586912       22.1029599960
  S        11.7465325871        6.3214389235       11.4276175666
  C        11.5360998910        9.0243482679       10.9272303986
  H         5.8344817519       -0.5160024628       38.7979229587
  H         6.2473355483       -1.7750323967       37.7246461176
  H         6.5846992987       -0.2241395399       37.1403794086
  H         0.7661628589       -2.0687158829       17.3132906173
  H         1.2264030818       -0.5355942386       16.6332055756
  H         1.0299675757       -0.7243584179       18.3301163867
  H        18.7533195343        2.9461967391       22.4988504531
  H        17.5206772095        3.6596339494       21.5318779369
  H        17.8254814561        1.8991316131       21.3916165768
  C        11.8845835930        7.0834749060        9.7946817194
  N        11.9644106889        8.4514552073        9.7818199489
  O        11.1796815439       10.2251951089       11.0686412818
  S        12.4352167941        6.2365747782        8.2711446088
  C        12.2623101613        9.2935000001        8.5987047743
  H        12.4207604058       10.2370854962        9.0150819693
  H        13.1495022713        8.9401915924        8.0411664443
  C        11.0691940495        9.4938450404        7.7711931054
  H        11.2123060329       10.4364508675        7.2422661223
  H        10.8805692110        8.7863308705        6.9933432610
  H        10.0709084771        9.6378215037        8.2339934098
  H        21.0288714922       10.6595374184        2.8965738421
  C        21.6067285706        9.7566967463        2.9663478283
  H        20.9327389994        8.9197191539        3.1259140865
  C        22.6372844705        9.8849406645        4.0026999372
  C        22.1090390230        9.6787255707        1.4602607088
  C        21.9182376975       10.2610159167        5.3425515194
  H        23.1599161922        9.0614624770        4.1450605668
  H        23.3231139381       10.6730004046        3.7434183106
  H        23.1509418194        9.4635508593        1.5728441152
  H        22.1204313927       10.5772106977        0.8760676400
  H        21.6657263939        8.7873445573        0.9570269399
  C        21.0442136239        9.1211238049        5.8912437912
  H        22.7432859530       10.4626591505        6.0018860637
  H        21.4799741746       11.1790259546        5.0848967008
  C        20.3465587687        9.3284216963        7.2555223830
  H        21.7543715442        8.3058264603        6.1267551830
  H        20.3592575171        8.8019710405        5.1256189028
  C        19.1292635196       10.3110519647        7.1580200279
  H        21.0046072905        9.8378233683        7.9736069564
  H        19.9940565588        8.3904924372        7.7411854064
  C        17.8148674671        9.6259115048        6.8170518114
  H        19.0582118647       10.8966348108        8.0436259682
  H        19.4105813569       11.1159122861        6.5198671511
  C        16.5991841611       10.5521675035        6.6131050922
  H        17.7179728010        8.8808526109        7.5877264480
  H        18.0423958810        9.1197203485        5.9160031211
  C        16.9865116712       11.8561801915        5.8784682180
  C        16.1442395248       11.3183798952        7.8553239720
  C        15.3903177168        9.8881551738        5.8314286829
  C        16.8157877374       12.9928563848        6.6630537876
  C        17.3915586573       12.1774378840        4.5829373421
  C        16.2631864468       12.6656021030        7.9098025171
  C        15.6914990350       10.6840123233        9.0188264459
  H        15.7450032117        9.2239060983        5.0211110564
  H        14.9486841787        9.1620555664        6.5537293915
  C        14.2966756433       10.7967204583        5.3322005976
  S        17.4059109281       14.3788626015        5.9054618821
  C        17.5932460403       13.4922400090        4.4388144237
  H        17.3421798420       11.3859662760        3.8884091235
  C        15.8026160513       13.3403538642        9.0024780909
  H        15.9228682558        9.6647649411        8.9257403843
  C        15.2893632755       11.3144767510       10.1889716116
  H        14.7947804248       11.4070753456        4.6240237139
  H        14.0247829747       11.4416775292        6.1562552154
  C        13.1421315234        9.9439339111        4.6626642523
  C        18.0943463854       14.0880258022        3.1763867116
  C        15.3089194308       12.6654615995       10.1573353222
  H        15.6729700670       14.4529667237        9.0207249680
  C        14.8864860410       11.0054408328       11.4481511939
  H        12.2322073708       10.4630718536        4.6783273227
  H        12.9328306919        9.0147227055        5.1877389304
  C        13.4239352994        9.6277999699        3.1755672655
  C        18.1912123604       15.4736296292        2.9332832992
  C        18.5574546481       13.1750735959        2.0587225778
  C        14.9165524155       13.5077915754       11.3934091760
  C        14.6632424686       12.1688089694       12.1787493178
  S        14.6895356826        9.4800317473       12.3404600945
  H        13.8441717973        8.5942214976        3.0807958636
  H        14.1443997440       10.3384101259        2.8437454660
  C        12.2248862145        9.9336413768        2.3795845960
  N        17.9310954387       16.5299794596        3.7792518329
  C        18.5300053137       15.9881840860        1.7017680857
  C        18.8767289027       13.7623758252        0.8273782197
  H        18.6915007524       12.0988425223        2.1785325060
  C        13.6292430665       14.2912711337       11.0221799318
  C        16.1163252717       14.3874235481       11.8507820788
  C        14.3379671573       11.8609676533       13.4890706551
  C        14.2499400774       10.4919230695       13.6924432870
  H        11.4341912683        9.2811230776        2.7777537377
  H        11.9125360397       10.9970921207        2.3645357092
  C        12.4372961459        9.4967380324        0.9390936616
  S        17.9952173780       17.9601720350        3.0647406713
  N        18.4058947747       17.3615383002        1.6476332344
  C        18.8289779067       15.1887120936        0.6002665174
  H        19.1887383606       13.1451485460       -0.0036689533
  H        13.7570395211       14.8965654270       10.1106570961
  H        13.5152404030       15.0481877947       11.8175444764
  C        12.3898044105       13.4189351312       10.8155438892
  H        16.3342935545       15.1456393644       11.0873663944
  H        15.8683085559       14.8346729733       12.8000080822
  C        17.4221884764       13.6256711632       12.0138222074
  H        14.1815363741       12.6858443732       14.2072910517
  C        14.0790849246        9.8320716128       15.0681128817
  H        11.4637248418        9.3377020593        0.4718767445
  H        13.0412641499        8.6390374234        0.9861355116
  C        13.2169851280       10.4736814246        0.0069207005
  C        19.0458945562       15.8762283455       -0.5896006990
  H        12.5371916018       12.6452308289       10.0561373469
  H        12.0799822561       12.8987588995       11.7079088127
  C        11.1714225678       14.2953317932       10.6079441820
  H        17.7902840284       13.2731343728       11.0412314711
  H        17.3153658761       12.7878247246       12.7501926795
  C        18.4303203733       14.4942921388       12.8676089739
  C        14.0415407494        8.4322121882       15.2780486999
  C        13.8469038379       10.5619652735       16.3653641677
  H        13.3700748588       11.4756384159        0.4403388084
  H        14.1545227716       10.0025812319       -0.0907036932
  C        12.5540529223       10.5042807279       -1.3264729938
  H        18.8612824502       16.9659522757       -0.6873752637
  C        19.2835697770       15.4744260464       -1.9153210840
  H        11.3420956299       15.0677658764        9.9175031013
  H        10.8184480867       14.7083948644       11.5441027815
  C        10.1426898555       13.3243427737       10.0033964848
  H        18.9374081143       15.3276539214       12.3242315524
  H        17.8576072170       14.8232320512       13.6966144845
  C        19.4761197685       13.6350878973       13.5355301128
  N        14.1489432779        7.4278311287       14.3145762967
  C        13.7651828767        7.8368989489       16.5403041352
  C        13.5391764641       10.0112433102       17.5756328251
  H        13.9813504693       11.6096443557       16.2954644279
  H        13.2478948279       10.8080638910       -2.1341543478
  H        11.7050817942       11.2170294103       -1.3747560468
  H        12.1152825456        9.6135454998       -1.6545386151
  S        19.5240804033       13.8670635980       -2.4225028854
  C        19.2792758978       16.5339456663       -2.9107826363
  H        10.5081933002       12.9397266687        9.0838551064
  H        10.0834422047       12.3931414969       10.5701183611
  C         8.7450832316       13.9253266001       10.0311492218
  H        19.6263214847       12.6231484006       13.1116596298
  H        19.2194151174       13.4382382893       14.6458607887
  C        20.6997307322       14.4679468485       13.5641746558
  S        14.0564389572        5.9658048696       14.9417557234
  N        13.8114849117        6.4348045299       16.4871237767
  C        13.4549910818        8.5450187257       17.7396906608
  H        13.4083139674       10.7322300827       18.3779310021
  C        19.7722119521       14.5838242826       -4.0145355499
  N        19.7008844446       15.9613057576       -4.0554681139
  O        19.1733209675       17.7714928846       -2.7339001599
  H         8.3299810752       13.8968907195       11.0067243155
  H         8.8999753037       15.0013628064        9.9101345058
  C         7.9778687167       13.3338471072        8.8837809202
  H        21.4944132887       13.7200528516       13.7627059384
  H        20.8923632440       14.9339876678       12.6057311237
  C        20.7058686184       15.5451473042       14.5975513378
  C        13.2409306188        7.8357050939       18.9687419841
  S        20.4678116722       13.7094727320       -5.4759872124
  C        19.7287496659       16.6810358464       -5.3426347013
  H         8.6804901994       13.2985341569        8.0459379628
  H         7.8562072404       12.3179343411        9.2132107832
  C         6.6587177629       14.0587304734        8.7196619649
  H        21.0989279184       15.1248408874       15.5228316931
  H        19.6882935570       15.7399446823       14.8072655486
  C        21.5139884835       16.7331418518       13.9495957498
  H        13.7357188914        6.8720005154       18.9640448341
  C        12.6182563947        8.2059346397       20.1138654638
  H        20.6190674074       16.4507084053       -5.9283795966
  H        19.8403980586       17.7204541725       -5.0351194098
  C        18.3443739311       16.7580825709       -5.9924531682
  H         6.1208280131       13.6396372144        7.8684048721
  H         6.9545684691       15.0474246158        8.3759300548
  C         5.8685938619       14.3214073370        9.9996443404
  H        22.4281592039       16.4753452463       13.4805894760
  H        20.8705552483       17.1106821883       13.1177324743
  C        21.7094692327       17.9675460497       14.7941196651
  S        11.8713892893        9.7249586440       20.4687581935
  C        12.4678669293        7.1303116406       21.1492460613
  H        18.3400588311       17.2119138551       -6.9547921802
  H        17.7651138703       17.3650730474       -5.3135572142
  H        17.7730102658       15.7971966230       -6.1179974207
  H         6.2160848319       15.1509031983       10.6190708007
  H         4.8764628224       14.7344563623        9.8015222147
  H         5.7912652215       13.4091044362       10.5801291558
  H        21.9190821350       17.7757254242       15.8765520951
  H        22.6155525168       18.4399415850       14.4344540112
  H        20.9436946357       18.7448837496       14.6235564961
  C        11.4725963267        9.0287156311       22.0550271829
  N        11.8156213639        7.7222274007       22.1878743163
  O        12.8801237393        6.0001247576       21.0964206926
  S        10.7379276899        9.9082200781       23.2753203598
  C        11.6177741707        6.9527782767       23.4218067640
  H        11.7282280764        5.8596502634       23.1860710371
  H        10.6190175308        7.0677765959       23.7745997517
  C        12.6743687417        7.3852917990       24.4351938638
  H        13.6401972688        7.2787971285       23.9415544201
  H        12.6164173640        6.6889894228       25.2424079808
  H        12.6000987569        8.3913825509       24.8424092468
