352
 i =    16900, time =    16900.000, E =        24.5569296796
  H        11.6439381253        7.0035914942       32.3465958874
  C        11.4880456334        5.9231828083       32.3994754184
  H        12.4922369105        5.5124809618       32.1769073461
  C        10.5348819943        5.5430914906       31.3099788467
  C        11.0559403593        5.6359450027       33.7797803943
  C        11.1094039965        5.7775375657       29.9310448335
  H        10.3149639328        4.4887606395       31.4548057105
  H         9.6238707898        6.1097292929       31.2875788924
  H        11.8847815689        5.6926191815       34.4592060595
  H        10.4138527153        6.4920197592       33.9706380077
  H        10.5807120449        4.7156808413       33.8368403772
  C        10.2064642989        5.1716287447       28.8593474525
  H        12.0891510325        5.2139295055       29.9463391860
  H        11.2647049877        6.7943167856       29.7993064636
  C        10.6655545167        5.5288746533       27.4543222114
  H        10.3110141699        4.1041966750       29.0013175796
  H         9.2183797792        5.5317527411       29.0220275626
  C         9.6698379471        4.8348293345       26.5043610186
  H        11.6299856353        5.1340789619       27.2920180423
  H        10.7773424902        6.5669435828       27.1427318194
  C         8.4430283017        5.7434221552       26.2066773804
  H        10.2487929808        4.7010118418       25.6167345038
  H         9.4735352989        3.9997876049       27.1008599805
  C         7.3223282100        5.0476777435       25.4094449080
  H         8.0009909142        6.1381124133       27.1666062351
  H         8.7791158655        6.6393198974       25.6591196959
  C         7.0570193273        3.5894825266       25.9754096086
  C         7.6976347072        4.3923342255       24.0998470397
  C         6.0018584678        5.8022820381       25.2589179432
  C         7.2919136525        2.5747844505       25.0798510568
  C         6.6035309034        3.1700470917       27.2324975911
  C         7.7550917312        3.0740483309       23.8656284212
  C         8.2168423133        5.1900417066       23.0161345013
  H         6.1677890163        6.6424622531       24.6481782049
  H         5.8052414875        6.2034977158       26.2629077321
  C         4.7024751161        5.1786838354       24.5687852238
  S         6.8608474302        1.0273399307       25.7943327819
  C         6.3368525024        1.8177960809       27.2805664375
  H         6.5695653331        3.9159417091       27.9775908619
  C         8.2640507133        2.5339471885       22.7109090277
  H         8.1852512694        6.2516502116       23.2210026853
  C         8.6318257271        4.6390772059       21.8018225386
  H         4.9489217053        5.1634086304       23.4939051489
  H         4.4044189966        4.2145751566       24.8532075676
  C         3.4805792804        6.1188671889       24.6696698804
  C         5.8769294462        1.1691866196       28.5554034278
  C         8.7378286956        3.3056174602       21.6531612110
  H         8.3409465641        1.5015254535       22.5593221394
  C         9.0148701996        5.0627674293       20.5361315241
  H         2.7031967184        5.7775919759       23.9906862727
  H         3.7637191243        7.0706823629       24.3441752441
  C         2.8728242427        6.0841572168       26.0729805761
  C         5.9212053679       -0.2025385213       28.8211366462
  C         5.3474853109        2.0521786368       29.6130607122
  C         9.1625572295        2.6421145166       20.4211031911
  C         9.4748723843        3.9709393261       19.7502327116
  S         9.1544905372        6.6313036393       19.6979888959
  H         2.0362022760        6.7740541103       26.0772915008
  H         3.6252968363        6.4791458875       26.7613168043
  C         2.3449526916        4.7592687438       26.5148151201
  N         6.3254247147       -1.2185493849       27.9135860967
  C         5.4896177686       -0.7321888103       30.0614539439
  C         5.0066739012        1.5513280503       30.8749644517
  H         5.4731535517        3.0514943161       29.4113179117
  C         8.1211544782        1.8783552520       19.6525296263
  C        10.4526029841        1.8239808797       20.6343942242
  C         9.9434426552        4.3975965578       18.4906733772
  C         9.8161359799        5.7433312698       18.3103863784
  H         1.4659818799        4.4101749329       25.9636937055
  H         3.2261043302        4.0429169861       26.6573096188
  C         1.8172028258        4.9802246919       27.9448857906
  S         6.3274872213       -2.6574714038       28.7827895835
  N         5.5645813279       -2.1453676289       30.1849860431
  C         5.0568745456        0.0876293278       31.1061351065
  H         4.8209489082        2.1927948015       31.7110207024
  H         7.6472874260        1.0871367272       20.2495978140
  H         8.5812904995        1.3432743025       18.8723077856
  C         6.9010002187        2.7491204554       19.1813660988
  H        10.4935780303        0.9242970758       19.9923679795
  H        10.4261694629        1.3889280197       21.6566795444
  C        11.7236566003        2.6557121701       20.7092331566
  H        10.2018132959        3.6274639574       17.8530627153
  C        10.0636984694        6.4516292671       16.9832550750
  H         0.9484988275        4.2118211959       28.0840777157
  H         1.3658638149        5.9616322063       27.9918392146
  C         2.9249035976        4.8313980076       29.0587180705
  C         4.9568459687       -0.5660489601       32.3999754257
  H         7.2154477906        3.4657710864       18.3866710300
  H         6.5559952743        3.2983809520       20.0223122494
  C         5.7909683155        1.8976367483       18.7036253506
  H        11.7558025922        3.6209420675       21.1916346474
  H        11.9601142783        2.9008359201       19.6833129933
  C        12.9619596385        1.9108214926       21.1257074230
  C        10.1072985850        7.8493127534       16.7626044789
  C        10.1797453158        5.6174874500       15.7343726927
  H         3.2967560644        3.8259439855       28.9745556116
  H         3.7938973085        5.3684924760       28.8964178822
  C         2.2377957718        4.9866686153       30.4259083480
  H         5.1244405064       -1.6272378464       32.2936702280
  C         4.7306699549       -0.1507968783       33.6967254069
  H         5.1655280267        1.5686086592       19.5027117816
  H         6.2638755956        0.9449295031       18.4459721442
  C         5.0594284418        2.4444822952       17.4666401355
  H        12.6959921065        1.3153409614       22.0550214863
  H        13.2234328342        1.2385227892       20.3500373300
  C        14.2149707622        2.8612599730       21.2946002336
  N         9.7950586536        8.8217000096       17.7317512076
  C        10.2624160272        8.4232002377       15.5356859715
  C        10.4066958839        6.2165675028       14.4825558045
  H        10.1526985326        4.5433062115       15.7700323138
  H         1.9177005260        6.0392608785       30.5146681473
  H         1.3346519986        4.3081128153       30.5799260958
  H         2.9578848768        4.7331436533       31.1823845477
  S         4.3834417048        1.4386491726       34.1754930539
  C         4.6063518996       -1.2454507995       34.7049287552
  H         5.4026656286        3.4694564625       17.2445339535
  H         5.3706961851        1.7915356873       16.6453831728
  C         3.5290922221        2.4241904915       17.5100014829
  H        14.1150632322        3.6550698490       20.6206229254
  H        15.1110485012        2.3421899382       20.9551753248
  C        14.4145806336        3.3549292705       22.6896391005
  S         9.8676887940       10.2711892572       17.0756014695
  N        10.2772207276        9.8506810036       15.5815203608
  C        10.5187747213        7.6789853505       14.3560457755
  H        10.5283275177        5.5645658877       13.5686515412
  C         4.0909649379        0.6203114513       35.7426622772
  N         4.2623787450       -0.6990737397       35.8811857151
  O         4.9534714883       -2.4227523059       34.4877918052
  H         3.0596509928        3.1418432078       16.7746665910
  H         3.2028366308        2.8858127101       18.5010176220
  C         2.9435430353        1.0657753952       17.3655390659
  H        15.1783228032        4.1489737903       22.6183093588
  H        13.5381696747        3.8716544840       23.0239504918
  C        14.8857781231        2.3253489286       23.6486287275
  C        10.8604446453        8.3230098753       13.1552089567
  S         3.7212317116        1.5394983090       37.2053078792
  C         4.2755340570       -1.4998848637       37.1458857734
  H         2.0256297994        1.3132282043       16.8505042973
  H         3.5459380854        0.5263230081       16.6957152122
  C         2.7228718780        0.1888928961       18.5868496562
  H        14.5806408120        1.3297573444       23.2533529405
  H        14.2930896697        2.5156169608       24.5646722067
  C        16.3537365734        2.3364084681       24.0936609043
  H        10.6125735196        9.4349070996       13.1711633473
  C        11.2857556874        7.8450469276       11.9561392005
  H         3.6012704978       -1.1048578586       37.8920948071
  H         3.9220605742       -2.5144987230       36.9148264758
  C         5.6522516894       -1.5957652359       37.8492617439
  H         1.8476233862        0.4063893206       19.1649206200
  H         3.4361078693        0.2497779994       19.3646518280
  C         2.7577543634       -1.2848347047       18.1210814688
  H        16.5293208638        3.1809977964       24.7814052983
  H        16.4940519168        1.4926971609       24.6207341864
  C        17.3158929473        2.4562807645       22.8605868610
  S        11.7288907616        6.2033269403       11.5496993319
  C        11.5145141495        8.8707772559       10.8786007510
  H         6.4077280457       -1.0898302452       37.2367459040
  H         5.7531023493       -1.0882767403       38.8122628906
  H         5.9654060962       -2.5886024642       38.1159467449
  H         2.6735993826       -1.9610313147       18.9882910788
  H         3.5498586039       -1.5008498289       17.5262494226
  H         1.8942341087       -1.6113170615       17.6012660738
  H        18.3378080863        2.2146210289       23.0905754198
  H        17.2551432782        3.3517497732       22.3325321776
  H        16.9807643765        1.6693573649       22.1497581066
  C        12.1371769483        6.9140580125       10.0079896743
  N        12.1118350502        8.2707199035        9.8583173186
  O        11.3705996114       10.1022613136       11.0126421446
  S        12.3262288819        6.0493433397        8.4397177733
  C        12.5912925230        9.0160264982        8.7151501330
  H        13.0509676233        9.9479741093        9.0085950421
  H        13.4233038840        8.5225658164        8.3060095779
  C        11.4805276061        9.2431019292        7.6989088128
  H        10.6600591039        9.6796594225        8.2785472756
  H        11.8345163555       10.0442547798        6.9628244657
  H        11.1679753725        8.2930814598        7.2391598282
  H        20.8121822723       11.1248133376        3.7432374041
  C        21.4760367351       10.3188800303        3.5224949356
  H        20.6877750181        9.4752208198        3.7508371839
  C        22.5175993865       10.3620554715        4.6443056305
  C        22.0839446646       10.3997364971        2.1198576853
  C        21.6906859779       10.6423736091        5.9087705236
  H        23.1213755556        9.4677648667        4.7760421883
  H        23.1963494066       11.2140815175        4.4303678042
  H        21.3358667556       10.0394733325        1.4220773942
  H        23.0860177183        9.9529523552        2.0859770055
  H        22.3287788497       11.5254052711        1.9307942606
  C        20.9123685940        9.4187391300        6.5183728133
  H        22.3900557434       10.8842782841        6.6811730683
  H        20.9798023036       11.5303129931        5.9731585889
  C        20.1471555065        9.7644176740        7.7977496562
  H        21.6394874565        8.6393241064        6.7416641058
  H        20.2334967554        8.9570859483        5.7963380624
  C        18.9662357416       10.7772384877        7.6718528180
  H        20.7945729784       10.1510580987        8.6060712760
  H        19.6744378425        8.8750924207        8.2610478828
  C        17.7042590046       10.0545363826        7.1121746736
  H        18.5695724717       11.1449870625        8.6387296976
  H        19.2950380077       11.6182073342        7.1161950899
  C        16.5353088895       10.9349629682        6.8843289821
  H        17.4776875728        9.2226061472        7.7254381085
  H        17.9654231553        9.7719177033        6.0726240493
  C        16.9543079448       12.2428087309        6.2400334911
  C        16.1028839049       11.6726287466        8.0838738542
  C        15.3026637255       10.3231973010        6.0901422774
  C        16.6538013408       13.3792498428        6.9707903660
  C        17.5389436574       12.5230919074        5.0112551456
  C        16.1293489847       13.0273572386        8.1778936514
  C        15.5535922906       11.0105675176        9.1894090937
  H        15.8488027053        9.7507855705        5.2997605144
  H        14.8098832094        9.5898859000        6.6943940094
  C        14.2223886298       11.3323887477        5.5068372774
  S        16.9470008557       14.8401631656        6.1437984616
  C        17.6089922097       13.8687308050        4.8050297877
  H        17.8024432614       11.7286971591        4.3842094305
  C        15.6955756837       13.6335374150        9.3141451320
  H        15.4785902630        9.9252887086        9.1648422160
  C        15.1815080312       11.6253072720       10.3791609332
  H        14.6586566600       12.2896012524        5.1809220625
  H        13.5437257308       11.6375977946        6.2646154280
  C        13.3705752878       10.8206323976        4.3201496646
  C        17.9651775854       14.5027611404        3.5020740403
  C        15.1829776469       12.9522286547       10.4565205052
  H        15.7578441460       14.7033672109        9.4531819000
  C        14.6683692178       11.2241886129       11.5548600692
  H        12.7499758418       11.6554141382        3.9451395281
  H        12.6744726600       10.0907729163        4.7137823985
  C        14.1047841044       10.1533080374        3.1037758966
  C        17.8906837793       15.9060493441        3.2041820549
  C        18.6425835203       13.6781624200        2.4968096393
  C        14.6609821846       13.6742711273       11.7055303622
  C        14.4340790017       12.2868877571       12.3910153830
  S        14.5015306368        9.6918785179       12.3090484381
  H        14.8891389626        9.4521600896        3.4643419351
  H        14.6751978134       10.9906570409        2.7425158847
  C        13.3600688452        9.3873729702        1.9229237396
  N        17.5015686753       16.9409064968        4.0790300248
  C        18.1623653722       16.3942390524        1.9517986780
  C        18.9703928989       14.2460724673        1.2686065991
  H        18.7017923317       12.6536639192        2.6733441152
  C        13.3738329357       14.3894609817       11.3996382204
  C        15.6712433318       14.5228940316       12.4157492989
  C        13.9029721984       11.9044382215       13.6318794138
  C        13.9173508692       10.5399635691       13.7627017729
  H        13.8001971676        8.3942577918        1.7488605567
  H        12.4052715400        9.0533594332        2.2313595653
  C        13.4562044839       10.1535960633        0.6208809020
  S        17.4513943874       18.4156573932        3.2814957229
  N        17.8112236139       17.7770869499        1.7818425667
  C        18.7182482423       15.6842343001        0.8755608880
  H        19.2760555908       13.6551247039        0.4181051728
  H        13.5264922841       15.1885529097       10.6405832482
  H        12.9881351903       14.9628204883       12.2458282631
  C        12.2917371612       13.4285028985       10.7893587711
  H        15.8961435732       15.4366213439       11.8160023335
  H        15.2510088920       14.8783652654       13.3875944205
  C        16.9434027784       13.8024800827       12.8325505460
  H        13.5882391811       12.6291597635       14.3844498008
  C        13.6834497624        9.8293795928       15.0584169768
  H        14.3749159457       10.0104519800        0.0521001044
  H        13.4001805392       11.2419371371        0.6580964489
  C        12.2781668774        9.7476314777       -0.2382888771
  C        18.9165068210       16.2966574329       -0.3963545076
  H        12.4405933873       12.9749905231        9.8496444554
  H        12.1880400961       12.6401618419       11.4802601894
  C        11.0744473361       14.2622840600       10.8506996311
  H        17.3977481740       13.3054697391       11.9702980593
  H        16.7702638952       12.8871500081       13.4658448991
  C        18.0229590023       14.7348744987       13.4796056054
  C        13.6409217347        8.4495814973       15.2243187151
  C        13.5163736506       10.6338224501       16.3372096498
  H        12.3952556084        8.6640254211       -0.4190903555
  H        11.2832925119        9.8782172915        0.1940754668
  C        12.3337409591       10.5642982835       -1.5489529734
  H        18.7583962386       17.3772628629       -0.4004425502
  C        19.3387306859       15.8405159527       -1.6135284991
  H        11.2324918033       15.1689517906       10.1933192656
  H        10.8346995349       14.6750864963       11.8806130371
  C         9.7473315936       13.6443559498       10.4400883373
  H        18.4130076989       15.1511465205       12.6122062692
  H        17.5555494411       15.5769954250       14.0329352885
  C        19.1500227373       14.1092466191       14.2995236037
  N        13.7353662383        7.4710156480       14.2157837537
  C        13.2779346755        7.9115529467       16.4258345827
  C        13.2526356969       10.0485899199       17.5406179336
  H        13.5631382209       11.6504287846       16.2864818764
  H        11.4938853146       10.4342612802       -2.1835714570
  H        13.1721391403       10.4205044070       -2.2372630726
  H        12.2999356818       11.6290824746       -1.4711025251
  S        19.7211260888       14.1649694912       -2.1752209211
  C        19.3146209750       16.8460421584       -2.7034534505
  H         9.7757128731       12.6621528206       10.8785391532
  H         8.9340976097       14.0735867639       11.0467419745
  C         9.3320862221       13.7666315716        9.0530738424
  H        19.4491940010       13.2470638851       13.7252202782
  H        18.7841322872       13.6442138098       15.2315502379
  C        20.2179729242       15.1199321484       14.7742447607
  S        13.7479163005        6.0302789470       14.9413770028
  N        13.2535445154        6.4963462959       16.4048195455
  C        13.0699040939        8.6357505111       17.6611909763
  H        12.9578484308       10.7371873955       18.3267274234
  C        19.9096563041       14.9142288600       -3.7633473888
  N        19.8248110108       16.2356444496       -3.7897498320
  O        19.2733775375       18.0938838683       -2.4943031077
  H         9.3344034646       14.8156882935        8.7330422792
  H        10.0715138938       13.2890179854        8.4095197707
  C         7.9352504926       13.3207841343        8.8425901369
  H        19.6493471050       16.0045827451       14.7949335012
  H        20.6011652457       14.8164767439       15.7271711561
  C        21.3167149933       15.2446023896       13.7038285187
  C        12.7524987017        7.9605498201       18.8671300838
  S        20.5242068095       14.0585857870       -5.1659755600
  C        20.0330413305       16.9948875933       -5.0602894056
  H         7.7652346780       13.2501394944        7.7659701973
  H         7.7382418407       12.4142683765        9.4600308619
  C         6.8698800708       14.3787035179        9.2616319065
  H        20.8606500839       15.7518325887       12.8175552522
  H        21.7324453846       14.2906149821       13.4532909139
  C        22.4842960326       16.2330609568       14.0394074133
  H        13.0077989070        6.9101859541       18.7594224819
  C        12.2932966025        8.3248680859       20.1307086643
  H        20.9415611861       16.5676684966       -5.6002792736
  H        20.3038962662       17.9856563024       -4.6921086957
  C        18.7091725344       17.0737994273       -5.7941401374
  H         6.5077486660       14.9215661692        8.3530582715
  H         7.2154531324       15.1127275283        9.9432298278
  C         5.6731991585       13.8184781741       10.0221988843
  H        23.0119144243       15.8510978969       14.9202352179
  H        23.2871477754       16.3090957419       13.2425381478
  C        21.9794777700       17.6936245875       14.2891206627
  S        11.8299633298        9.9005257662       20.6871290765
  C        11.9937704550        7.2303190043       21.1351307831
  H        18.5442719729       16.0162534620       -6.2118882087
  H        18.5644676129       17.7894462803       -6.6258777704
  H        17.8911417939       17.2555296847       -5.1109470966
  H         5.0543194618       13.1601210897        9.4408198080
  H         6.0237092823       13.3408145007       10.9225594988
  H         5.0212778838       14.6457870937       10.4140253070
  H        22.7693887412       18.4144838193       14.2307058291
  H        21.1642596323       17.8600734917       13.5997718361
  H        21.6387624547       17.7339882027       15.3003739095
  C        11.2844696995        9.1237197440       22.1483774822
  N        11.4860366141        7.8115073130       22.2233951412
  O        12.4543545715        6.1069049178       20.9838092196
  S        10.2492124081        9.9864716409       23.2826277356
  C        11.2920908650        7.0227373969       23.4447134396
  H        10.9651410219        6.0214719519       23.1211126805
  H        10.5570427215        7.4531309354       24.0824678616
  C        12.5840080597        6.9508481517       24.2322612553
  H        13.3131083644        6.2393762797       23.9085882690
  H        12.4099397424        6.7359506481       25.3271088480
  H        13.0981749561        7.8829639326       24.2491056453
