352
 i =    16000, time =    16000.000, E =        24.1278871914
  H        11.5015739015        6.3612052910       32.9755550150
  C        11.5838971627        5.3254612379       32.6085090124
  H        12.5672658021        5.1879460569       32.1501339268
  C        10.5411619809        4.9568561172       31.5461059655
  C        11.2776951481        4.5081284289       33.8635389412
  C        10.7000598449        5.6995758588       30.2447275657
  H        10.6431974544        3.8838859551       31.3380900131
  H         9.4682162494        5.1243710501       31.8574264531
  H        11.9017936210        3.6201121497       34.0288570899
  H        11.3907148103        5.0266559413       34.7824963701
  H        10.1817784055        4.2553441037       33.7755742551
  C         9.8358598134        5.2185200608       29.0939457417
  H        11.6712036041        5.4762921620       29.8659412752
  H        10.7217689649        6.7925360107       30.4247179494
  C        10.5427502335        5.1349647455       27.7022332042
  H         9.4209518708        4.2961424325       29.4276573498
  H         8.9932670620        5.8542288111       28.9159974249
  C         9.6234758377        4.5844974045       26.6436040002
  H        11.3577339135        4.4118368065       27.6899440368
  H        11.0204789290        6.0823556873       27.3953347337
  C         8.6020566801        5.6320676659       26.0528216824
  H        10.1940487058        4.0160654225       25.9016991287
  H         9.1508231735        3.8524780916       27.2475916229
  C         7.4223180216        4.9054281929       25.3500487000
  H         8.1661213886        6.3065950433       26.8280276957
  H         9.1502237054        6.2799244533       25.3019057623
  C         7.1507243478        3.5362064348       25.9694331213
  C         7.9589629868        4.2258514818       24.1422345904
  C         6.1623422724        5.7095781182       25.0356282633
  C         7.4525135391        2.4478151636       25.1578304756
  C         6.6055963140        3.1410165266       27.2023494607
  C         8.0159248550        2.8935086015       23.9805650268
  C         8.4822122448        4.9243268537       23.0350179440
  H         6.2341478198        6.3730545667       24.1992874807
  H         5.9775938284        6.4527100878       25.7962094794
  C         4.8623450085        4.8972890878       24.6288043587
  S         7.0128646376        0.9312795551       25.8072464515
  C         6.5335167253        1.7582943721       27.2343180237
  H         6.2568129642        3.9243978586       27.9131009030
  C         8.5354576742        2.3325701272       22.8808154851
  H         8.4945262982        6.0072537517       23.1585091383
  C         8.8870284026        4.3782639127       21.8491140847
  H         4.9722112755        4.4664382208       23.6114057736
  H         4.7982844339        4.1089934960       25.3704024187
  C         3.5382170804        5.7068628900       24.6433911711
  C         6.1489512195        1.0321120891       28.4973126954
  C         8.8784717156        3.0425009819       21.7387111794
  H         8.5155866016        1.2616025352       22.8316469630
  C         9.2349228213        4.7775866793       20.5988829119
  H         2.8201637744        5.3076593830       23.8681636524
  H         3.7666118241        6.7830952295       24.2776415945
  C         2.8725966794        5.8876936499       26.0562379359
  C         6.1449633936       -0.3408055256       28.7107685231
  C         5.6782859945        1.8257209461       29.6725889618
  C         9.2509195954        2.3510612240       20.4653831320
  C         9.4954341672        3.7076626261       19.7574943239
  S         9.3315068422        6.3132417363       19.8066301590
  H         2.0681513798        6.6963571408       26.0612901142
  H         3.6077903821        6.0687640143       26.7897866551
  C         2.1082595034        4.6435027650       26.4963319745
  N         6.5297026659       -1.2641345395       27.6820178620
  C         5.8533979278       -0.9512493866       29.9084923826
  C         5.3127892984        1.2057796233       30.8747368890
  H         5.5860882568        2.9014214103       29.5144370827
  C         8.0727605610        1.6351222710       19.7213576861
  C        10.5256466686        1.5007400351       20.6127745260
  C         9.8949560044        4.1562362704       18.4715999682
  C         9.8172594144        5.5310419026       18.3605832830
  H         1.2127959977        4.3679144306       25.9010492090
  H         2.7727383885        3.8012216310       26.3125709402
  C         1.5835557615        4.7741691217       27.9599627689
  S         6.5051378322       -2.7391087347       28.3526901662
  N         5.9010994778       -2.3444620904       29.8056029272
  C         5.4076902495       -0.2529141030       31.0698682053
  H         4.9498529599        1.7965012145       31.6831722074
  H         7.6817943345        0.8767127976       20.3263873222
  H         8.4400515157        1.1735306531       18.8068593121
  C         6.7642133987        2.4738290670       19.5267885734
  H        10.7763079625        1.2784554923       19.5929681569
  H        10.4412878095        0.5951744851       21.2154506245
  C        11.7746697287        2.2432581955       21.1043945193
  H        10.1829554549        3.4194902453       17.6988525161
  C        10.0497367128        6.3089096865       17.1453913265
  H         1.0007773186        3.7963830993       28.0847144944
  H         0.8997201548        5.5797647395       28.1487076339
  C         2.6479397831        4.9748318109       28.9725206233
  C         5.1858792323       -0.9589352988       32.3092927377
  H         6.9002838840        3.5122840706       19.1996212949
  H         6.3041129244        2.5980593756       20.4932016711
  C         5.7958062798        1.8435339820       18.5315110575
  H        11.5847045856        2.8352098300       21.9825451892
  H        12.1192357486        2.9765728406       20.3433768902
  C        12.9963792636        1.3393161183       21.3928189975
  C        10.1352250376        7.6805740212       16.9918501707
  C        10.0824793897        5.5224585325       15.8528971043
  H         3.4570414041        4.1936296946       28.8703918003
  H         2.9907062848        5.9741829951       28.8782455507
  C         2.0894516450        4.9873686897       30.3841700511
  H         5.5966356534       -1.9484381333       32.4504050625
  C         4.7827159300       -0.4939795994       33.5434853853
  H         5.8984215464        0.7458386679       18.4428739773
  H         5.9967487471        2.1827578845       17.4952961598
  C         4.3762400114        2.3189094015       18.6472098491
  H        12.8273513979        0.8090092363       22.3241599147
  H        12.9750224348        0.4876032323       20.6670946413
  C        14.3327083955        2.1406968088       21.3472624351
  N         9.8597012642        8.6147771081       17.9637046444
  C        10.3613276189        8.3186444046       15.7933177599
  C        10.3920444512        6.1711131666       14.6588442927
  H         9.6974601161        4.5185642357       15.8531510332
  H         1.4082533190        5.8762523289       30.5020164928
  H         1.4985369352        4.0629495409       30.5616246080
  H         2.8229315142        5.2342204948       31.1159754488
  S         4.1924501545        1.1028484575       33.9135875237
  C         4.7495665530       -1.4880017445       34.6933512240
  H         4.3671912019        3.0507715196       19.4184862925
  H         4.1735160290        2.8010108698       17.7510761301
  C         3.3810319200        1.1944378978       18.9776268018
  H        14.2397485078        2.9234655960       20.5899130274
  H        15.1198267946        1.4666356927       20.9300752705
  C        14.6849101122        2.7680227094       22.6651215545
  S        10.0453703781       10.0917535610       17.3893265362
  N        10.3492949288        9.6641967175       15.8483550069
  C        10.5867491282        7.6521487386       14.5843769848
  H        10.4090866835        5.5288247834       13.7872340227
  C         4.0400580818        0.4441391186       35.6210515787
  N         4.3525207499       -0.8504606553       35.8422779117
  O         5.0722691918       -2.6422277081       34.5903799624
  H         2.4869509262        1.7159280454       19.2105272529
  H         3.7130856490        0.7204489410       19.9239741785
  C         3.2074210228        0.2201279486       17.8456490397
  H        15.4451041714        3.5113331133       22.5515588133
  H        13.8087520270        3.2890344076       23.0134854287
  C        15.1966494118        1.7236636979       23.7202674397
  C        10.8174070044        8.4495346259       13.4164661100
  S         3.5222902624        1.3408331257       37.0062817195
  C         4.4319948678       -1.5663246681       37.1251881248
  H         2.5777380992        0.6802746061       17.0562064681
  H         4.1500058800       -0.0717519309       17.2177170543
  C         2.5639651618       -1.1279232891       18.2975596428
  H        14.8894996561        0.7286639539       23.4531324844
  H        14.5619618801        1.9154921492       24.5900240840
  C        16.7031565099        1.8653793474       24.0529008132
  H        10.3813439788        9.4472421984       13.4193123825
  C        11.4298479697        8.1446859831       12.1932107563
  H         3.6410483540       -1.2578799263       37.8626660261
  H         4.2489145375       -2.6551275036       36.8976845364
  C         5.9176364713       -1.7124835847       37.5741312614
  H         1.6643974704       -0.8922463736       18.8623432079
  H         3.3107903497       -1.7370831029       18.8664613450
  C         2.0057884339       -1.9026896791       17.0591149651
  H        16.9705026769        2.8749388509       24.4117313604
  H        16.8301661370        1.0923371018       24.8516922270
  C        17.6726976156        1.6626527777       22.8592063235
  S        12.2277086522        6.7175352052       11.7163141988
  C        11.4488471572        9.2260751917       11.1150982315
  H         5.9015164711       -2.4990876588       38.3307962452
  H         6.6965453434       -1.8645401766       36.7953817458
  H         6.2737195954       -0.8378225894       38.1621714942
  H         1.4319959863       -1.2948553304       16.2735018383
  H         1.3400780729       -2.6397402642       17.4097617891
  H         2.8276858120       -2.3935787153       16.4651593984
  H        18.7637606974        1.6231528119       23.1496964837
  H        17.6777741854        2.4973080196       22.1948653920
  H        17.3566609266        0.8306881262       22.2778866664
  C        12.4128569863        7.4411314985       10.0840543255
  N        12.0327942354        8.7619983617       10.0262613795
  O        11.0097495630       10.3678666916       11.2892253971
  S        13.2585509148        6.6310375446        8.7418954062
  C        12.1504131380        9.5960493354        8.8180942433
  H        12.3018997056       10.6149389705        9.1218485797
  H        13.1425887652        9.4358984514        8.3026941764
  C        11.0291109730        9.4808392575        7.7303714047
  H        10.0983527041        9.2904388427        8.2633047117
  H        10.9416278643       10.4295259181        7.0966334266
  H        11.1898685051        8.6390967765        7.0955102856
  H        21.1471990497       11.9036321475        2.8723989343
  C        21.6299044888       11.0285643734        3.1104634112
  H        20.8762521035       10.2655878950        3.3647643320
  C        22.4320457532       11.3330401299        4.3732046234
  C        22.4275935855       10.4897243938        1.9103811430
  C        21.4241856155       11.4036295222        5.5700961030
  H        23.2517107215       10.5498618890        4.4210673122
  H        22.8278320877       12.3121394525        4.2645266659
  H        21.9052550187       10.0637674045        1.0833633141
  H        22.9507283058        9.6142216772        2.3487928898
  H        23.2210240071       11.1338780641        1.4626255911
  C        21.1249982408        9.9851628903        6.1549232546
  H        21.9612582677       12.1247772462        6.2247992997
  H        20.5262249148       11.9694375254        5.2674275426
  C        20.4975470685       10.0082416099        7.5883393162
  H        22.0253620783        9.3827137378        6.0649417969
  H        20.4665431867        9.4465411616        5.4546326781
  C        19.2807199883       10.8897838725        7.6097400536
  H        21.2255533873       10.4060235434        8.2565393864
  H        20.3002585456        8.9868534045        7.8389607982
  C        17.9940926323       10.1332349687        7.1683661750
  H        19.2543414974       11.0294280165        8.7211796144
  H        19.4731621540       11.8131856028        7.1248210456
  C        16.7232413037       11.0090544162        6.9604763391
  H        17.8288523230        9.3642961753        7.8974857270
  H        18.3544568437        9.6648180493        6.2281199307
  C        17.0516477082       12.3023175316        6.2738552271
  C        16.2565263602       11.6877009523        8.1904764011
  C        15.5718385288       10.2361581536        6.2688243699
  C        16.6656740466       13.3762015384        7.0613185515
  C        17.5685084243       12.6684596267        5.0483998004
  C        16.2208486249       13.0379111921        8.2997918329
  C        15.8236532937       11.0380302706        9.2973751279
  H        15.9830905617        9.8477853112        5.3366318984
  H        15.3490073283        9.3664953758        6.8052517643
  C        14.2545367016       11.0367538954        6.1148979745
  S        17.0003191300       14.8775157860        6.2254461374
  C        17.5958798500       14.0200079102        4.8549463679
  H        17.7829185241       11.8525279238        4.2935309329
  C        15.8166178391       13.6147606850        9.4819404657
  H        15.8152551818        9.9804648983        9.1700036561
  C        15.4100022632       11.5971626388       10.4414321753
  H        14.5015630713       12.0781581540        5.8775560100
  H        13.7358495619       11.0654049721        7.0265979294
  C        13.2741266487       10.4931573664        4.9858362089
  C        17.9962761104       14.7311944771        3.5440795330
  C        15.3822508971       12.9244767647       10.5889994942
  H        15.8769165234       14.6655412010        9.4905488795
  C        14.9100723012       11.0642049001       11.6243779325
  H        12.2763085207       10.8848712014        5.0961685009
  H        13.3114543323        9.4653579804        5.0471897520
  C        13.7791332639       10.9293362829        3.6004450506
  C        18.0800617040       16.1637736802        3.3966934892
  C        18.5088364485       13.9294575857        2.4274379482
  C        14.9707788711       13.5616381412       11.9689593715
  C        14.6497378349       12.1127512793       12.5271438337
  S        14.7199758093        9.4947718878       12.3452331764
  H        14.9061176526       10.9171160434        3.5080584597
  H        13.4899509140       11.9508085827        3.4021331305
  C        13.3421822346        9.9554128139        2.4197905841
  N        18.0305662378       17.1113632217        4.4915073779
  C        18.3564279602       16.7175369311        2.1730088411
  C        18.8035028999       14.5420316640        1.2677871618
  H        18.6297300085       12.8085298824        2.4205620391
  C        13.7450866105       14.4508550842       11.8225820315
  C        16.1512823602       14.3546516246       12.6129921703
  C        14.3230403451       11.6078684833       13.8380812177
  C        14.2510465931       10.2439097315       13.9016907199
  H        13.9607453957        9.0610804640        2.6215608972
  H        12.3145273279        9.6355335291        2.5793855047
  C        13.5496970661       10.5585670147        1.0425098965
  S        18.1175953305       18.6243981413        3.8098452917
  N        18.2353202261       18.1187578128        2.1993314220
  C        18.6144124517       15.9723238544        1.0261911131
  H        18.9542716686       13.8439436611        0.4809584472
  H        13.9991812807       15.2084756731       11.0543468131
  H        13.5151866855       14.9989724325       12.7068752355
  C        12.4103293792       13.7986053290       11.3054604889
  H        16.6457591995       14.8921303148       11.7981705195
  H        15.8362959351       15.0063624292       13.4582494714
  C        17.2796303403       13.4823868687       13.0109873550
  H        14.0756663451       12.3842815661       14.5848788189
  C        13.9667834639        9.4379714583       15.1881039480
  H        14.5959079501       10.4852613672        0.7524651192
  H        13.2494871272       11.5660433378        1.1041730306
  C        12.8481695415        9.8458169625       -0.0398349900
  C        18.7438421434       16.6548822007       -0.2297323399
  H        12.3838413872       13.5420081433       10.2371480087
  H        12.3670771358       12.7917439790       11.7475835057
  C        11.1991334917       14.5784987803       11.6144015593
  H        17.4184576683       12.6888674216       12.3004275617
  H        17.0273594520       12.9181980961       13.8926922536
  C        18.5058313870       14.3396317017       13.2223334711
  C        13.8039711429        8.0550010716       15.3997773469
  C        13.7047827138       10.2584486776       16.3931119493
  H        13.2356459424        8.8632797624       -0.2107714509
  H        11.7721993964        9.7556642318        0.0977425553
  C        12.9423534102       10.7228743765       -1.3145397425
  H        18.6370855991       17.7236363638       -0.1479489241
  C        19.1322708085       16.2279964292       -1.4724074280
  H        11.1993355910       15.3882897155       10.9144430491
  H        11.1097747483       15.1204972884       12.5939496398
  C         9.9824248382       13.7245174668       11.3102401795
  H        18.9495641189       14.5979304751       12.2396979256
  H        18.1040275012       15.1995979314       13.6982150827
  C        19.4787364414       13.8454973110       14.2755943172
  N        13.9725087294        7.1809863099       14.3097394419
  C        13.5684842903        7.4109927973       16.5778909111
  C        13.4783520779        9.6428632899       17.6244395956
  H        13.8816455456       11.3389312657       16.3607020778
  H        11.9275215804       10.7217053361       -1.7522088562
  H        13.6445552174       10.2627822905       -2.0011523721
  H        13.1588096350       11.7873054993       -1.2462897785
  S        19.3388777922       14.5389496151       -1.9061709226
  C        19.3229115081       17.2448714345       -2.5232605604
  H        10.0424604226       12.9066995075       12.0210905085
  H         9.1141263994       14.3064902053       11.5687535038
  C         9.7716092352       13.3038825331        9.8772300427
  H        20.2521598874       13.1005539506       13.9835927699
  H        18.9512295393       13.4229390313       15.1154945167
  C        20.3097860415       15.0233044997       14.8438170601
  S        13.8810222714        5.6715509159       14.8866978418
  N        13.5210922135        6.0448575252       16.4409957609
  C        13.3877851005        8.1566963468       17.7595181648
  H        13.3956685053       10.2283400088       18.5456927124
  C        19.7035317750       15.2346977904       -3.5156222119
  N        19.7261750129       16.5926474876       -3.6046785601
  O        19.0802353417       18.4598402893       -2.4502169503
  H        10.0466150860       14.0984815742        9.2081047480
  H        10.4286199859       12.5083479655        9.5432394417
  C         8.3267293268       12.8777106475        9.5766674778
  H        19.5748676676       15.6970247330       15.2024192084
  H        20.9061458145       14.7043035003       15.6539497088
  C        21.2151489156       15.7441606416       13.8294275240
  C        13.3239582489        7.4920175667       19.0380584853
  S        20.0976739823       14.2954068584       -4.9762932977
  C        19.7776748804       17.2842572001       -4.9307125131
  H         8.2213478072       12.3191532975        8.6379297061
  H         8.0535571471       12.2336087658       10.4000569016
  C         7.3570163116       14.1228543833        9.4678006336
  H        20.5918528590       16.1537023669       13.0192595033
  H        21.9518105455       15.0464346025       13.3681833915
  C        22.0413483594       16.9079955943       14.3868707141
  H        13.7069000908        6.4982227070       18.9993095972
  C        12.7384737303        7.7448922293       20.2905158080
  H        20.4539187948       16.9359957547       -5.6341940382
  H        20.1473803794       18.2575978575       -4.7899106792
  C        18.3788552913       17.4387984086       -5.5892089508
  H         7.1498690951       14.3459479046        8.4092534614
  H         7.7533054904       15.0022837889        9.8878251462
  C         5.9246151407       13.8747652877        9.9956915357
  H        22.6855656801       16.5784223238       15.1869158337
  H        22.7559614571       17.1995830529       13.6176899456
  C        21.2702726173       18.1688520007       14.8059763681
  S        12.0084870967        9.2372754909       20.7662678325
  C        12.6471818978        6.6230645910       21.2518477905
  H        18.2593592097       17.0612259116       -6.6312715734
  H        18.0767895687       18.4963332763       -5.6326104105
  H        17.6924907120       16.9360197293       -4.9722275322
  H         5.7545274576       12.8758178521       10.2454171036
  H         5.5520588400       14.6022858588       10.6900421335
  H         5.3153277130       13.9458791254        9.1079365707
  H        21.9960641444       18.9530695472       14.8807616066
  H        20.4699823746       18.3919573544       14.1069556000
  H        20.6868401543       18.0644524213       15.6838643648
  C        11.7122757996        8.3284212493       22.3343116519
  N        11.8902424658        6.9657586445       22.2876777789
  O        13.1690730927        5.5299517300       21.0706809609
  S        10.3956395505        8.6347760274       23.4738681569
  C        11.6392398193        6.1502509554       23.4395779713
  H        11.6743599840        5.1556833551       23.0274964703
  H        10.5817151533        6.2914875174       23.7735560413
  C        12.8438187118        6.2487110200       24.4039517883
  H        12.8736763834        7.1455147511       24.9630256389
  H        13.8227940188        6.0523361648       23.8363754709
  H        12.7849919622        5.5005027500       25.2090825359
