352
 i =    45500, time =    45500.000, E =        25.0767684867
  H        11.0252838642        7.5466606012       33.1305725718
  C        11.3487511681        6.9374971940       32.2934978745
  H        12.2833608469        7.4547601805       31.9007859410
  C        10.2245340135        7.0132671997       31.2899048906
  C        11.6137175239        5.4845153691       32.9350465950
  C        10.7815383591        6.6094693131       29.9097111564
  H         9.4435637509        6.3235365168       31.6661031449
  H         9.8938857919        8.0260117406       31.1437581117
  H        11.6017491295        5.5865662041       33.9632969233
  H        10.8927587175        4.8234953299       32.5863178359
  H        12.5754012187        5.0577950301       32.5846426266
  C         9.7102900732        6.2219596246       28.9480809838
  H        11.4206130476        5.7433436419       29.9521165364
  H        11.3203136662        7.3926330552       29.4573459669
  C        10.3627247632        5.9394337082       27.6391141588
  H         9.1730608352        5.4484698294       29.4035217145
  H         9.0176341963        7.0509701864       28.8140961023
  C         9.3576048099        5.0828652705       26.8539359383
  H        11.2743082310        5.4173863207       27.7681483687
  H        10.4570965040        6.8427016447       27.0363229067
  C         8.1754588466        5.8885559864       26.2940422921
  H         9.9160184004        4.7039412737       26.0436721011
  H         9.0965155396        4.2979375497       27.5453689155
  C         7.0466802292        5.1050281581       25.5716089574
  H         7.7130496106        6.3224328020       27.1147575622
  H         8.5282476523        6.7318629675       25.6558802852
  C         6.7053531732        3.7138053749       26.2024921392
  C         7.5508101108        4.3360558651       24.3198251240
  C         5.8589945325        6.0828293413       25.2070832373
  C         6.9171474846        2.6513941470       25.3787508172
  C         6.3513127990        3.3525658489       27.4924132884
  C         7.4883101892        3.0238301699       24.1425499645
  C         8.0543470984        5.1207085140       23.3218176978
  H         6.1554197324        6.7735410229       24.4745336311
  H         5.6237976101        6.7189770022       26.0325257507
  C         4.6113795800        5.4366862973       24.5960461677
  S         6.4201740458        1.1693697176       26.1405160289
  C         6.1194671865        1.9904671783       27.6634198017
  H         6.2258328335        4.1756647564       28.1130239885
  C         7.9677825137        2.4885620830       23.0025589038
  H         8.2034347221        6.1666492879       23.4891028839
  C         8.4550180839        4.5824965060       22.1536323564
  H         4.7364549156        5.1480397384       23.4969105956
  H         4.3433061123        4.5051325817       25.0928423606
  C         3.3219381759        6.3122047505       24.6393501057
  C         5.8150382007        1.3234312661       28.9017815385
  C         8.5091558184        3.2146737037       21.9323728668
  H         7.9320667481        1.4634429957       22.7468123119
  C         8.9125146746        5.0448823752       20.8936588376
  H         2.4345208024        5.9963334068       24.1960858537
  H         3.5882315499        7.2149450304       24.1029971119
  C         2.8276568328        6.5268599970       26.0784561948
  C         5.8962119273       -0.0421418441       29.2294171506
  C         5.4466201026        2.2441666985       29.9963581225
  C         9.0069816296        2.6211481177       20.6619312047
  C         9.1862429425        4.0320639322       20.0295228953
  S         9.1713685639        6.6005017367       20.0983223442
  H         2.0706754534        7.2499773133       26.0427771254
  H         3.5454076690        6.9628228740       26.7566018046
  C         2.1313351330        5.2424806175       26.7551627422
  N         6.2646596474       -1.1152850450       28.3808189639
  C         5.6410411537       -0.5068349109       30.5084778281
  C         5.2220543584        1.7842053950       31.2641112350
  H         5.3761316628        3.2658468660       29.8001250778
  C         7.9659688632        1.8932854662       19.8659789338
  C        10.3251282703        1.8174346168       20.7850498201
  C         9.5911568835        4.4408126819       18.7966938895
  C         9.4828421029        5.8029317064       18.5861847854
  H         1.3484614217        4.9005609144       26.1009816401
  H         2.9218323997        4.4261354444       26.8935677222
  C         1.5003130569        5.7512880038       28.0701531038
  S         6.3125644590       -2.5293001476       29.2255673819
  N         5.7532215216       -1.8940026176       30.6569596930
  C         5.2621591723        0.3655481312       31.6229042061
  H         4.9566087602        2.4598292637       32.0415694394
  H         7.6152699488        1.0675346036       20.4165054667
  H         8.4113243621        1.5243726180       18.9391142197
  C         6.6910525370        2.6892444812       19.3779621020
  H        10.4367472609        1.2009194910       19.9130065427
  H        10.3013846703        1.1863435973       21.6099811583
  C        11.5146676318        2.8098975580       21.0089366047
  H         9.8102750216        3.6247860438       18.1033961643
  C         9.8290197635        6.5270329565       17.3392232949
  H         0.5042512459        5.4060437428       28.1862738101
  H         1.2809268628        6.8206271381       27.8902685410
  C         2.3365025280        5.5770038657       29.2941583772
  C         5.1141286585       -0.1766501690       32.9131317246
  H         6.9656684343        3.4164139253       18.6117682975
  H         6.2569064928        3.2041136627       20.1590075565
  C         5.6558153010        1.8102951459       18.6587902913
  H        11.1720017274        3.3507107524       21.9236382200
  H        11.6589375608        3.5367460484       20.2893363976
  C        12.8694220872        2.1835372018       21.3779591707
  C         9.9986768208        7.9259119168       17.2143074982
  C        10.0377833276        5.7002852812       16.1236096619
  H         2.8833645077        4.6390256806       29.1600141821
  H         3.1897688179        6.2619672481       29.3421791897
  C         1.5059859403        5.4274669425       30.6256929219
  H         5.4145680103       -1.2082917980       32.9295400680
  C         4.7034736821        0.3952785648       34.0573418016
  H         5.4736980696        1.0197128485       19.3940325295
  H         5.9758209754        1.3866893790       17.7622207285
  C         4.3547278757        2.5287125900       18.4549779655
  H        12.7693620579        1.3612785498       22.1265127458
  H        13.2188853994        1.7306319727       20.4746202642
  C        13.9156599746        3.2343731447       21.8036833072
  N         9.7819634832        8.9284803629       18.2221079709
  C        10.2969818476        8.4790263385       15.9865436928
  C        10.4332260131        6.2932030324       14.9287969177
  H         9.9370930715        4.6515167998       16.1979878462
  H         0.6535493542        4.8668192039       30.4421648532
  H         2.0606142332        4.9409406737       31.3802324731
  H         1.3024066208        6.3851714643       31.0162003321
  S         4.0609123357        1.9317865180       34.3896052807
  C         4.7319151100       -0.4965163912       35.2288411236
  H         4.4220397290        3.3441607289       19.2008719427
  H         4.3515270380        2.9919729034       17.4694242187
  C         3.1235785741        1.6300139619       18.5443426860
  H        13.4501929947        4.2065962546       21.8437746419
  H        14.6182197430        3.1836054326       20.9655872214
  C        14.6115570077        2.8850187159       23.1623089714
  S         9.8570305184       10.4108295622       17.5317020352
  N        10.4908054544        9.9295404952       16.0949421034
  C        10.6424374913        7.7229152356       14.8565943781
  H        10.5705623836        5.6635214511       14.0976769533
  C         3.8204350404        1.3358622988       36.0593678670
  N         4.1528630184        0.0592067925       36.2791767767
  O         5.1795040719       -1.5957110246       35.1867766805
  H         2.2048124841        2.1870727549       18.7263320760
  H         3.1054587325        1.0728930304       19.4733746855
  C         2.7956298132        0.7141214028       17.3856048002
  H        15.2224181356        3.7822674961       23.2778939329
  H        13.8988590030        2.8058371588       24.0840746637
  C        15.5647573100        1.6586324502       23.1434940938
  C        10.9712534199        8.4405276975       13.6726076312
  S         3.0906371663        2.2681865892       37.4029475916
  C         4.1382642523       -0.6352499804       37.5403069680
  H         2.4922577953        1.4158470279       16.6156615064
  H         3.6650624564        0.1828657514       16.9516548094
  C         1.6934988137       -0.2805187341       17.5932403287
  H        15.5456301552        1.2200679830       22.0885090697
  H        15.0765216464        1.0899975286       23.9329695131
  C        17.0193428740        2.0409402797       23.5256777287
  H        10.8526612574        9.5463346048       13.6200699091
  C        11.3978125160        8.0646516588       12.4061090040
  H         3.5171255258       -0.2385199322       38.3006187453
  H         3.6882351165       -1.5696985139       37.4321385922
  C         5.6007199944       -0.8386739061       38.0562783052
  H         1.2528820738       -0.6743472661       16.6691466186
  H         0.7840964557        0.0810238604       18.0718933392
  C         2.2609713717       -1.5325795607       18.2711823447
  H        17.0470768883        2.6569150263       24.4078002164
  H        17.6219017996        1.1693554373       23.9139023014
  C        17.7026894158        2.6611540458       22.3083507993
  S        11.7196820487        6.5486252623       11.7921374155
  C        11.6800603611        9.1536951154       11.4351113176
  H         5.4643862331       -0.8620127931       39.1420128973
  H         6.0454689362       -1.7965566984       37.7143569714
  H         6.2670212754       -0.0820388332       37.7693480831
  H         3.0301340521       -1.2332484890       18.9789934895
  H         2.7583602220       -2.3059402423       17.8215621225
  H         1.3865370323       -1.9881236353       18.7718116518
  H        18.1857925985        1.8179391619       21.7878426657
  H        18.5035581490        3.3717836350       22.6548560315
  H        17.0717530729        3.1979351368       21.6255204561
  C        12.1463848279        7.2537329982       10.2702521084
  N        12.0689313495        8.5882377139       10.2946773027
  O        11.6686267780       10.3663204502       11.5900221981
  S        12.6859797637        6.4844070262        8.6792528095
  C        12.2651795609        9.3606810937        9.0989902163
  H        12.5328317910       10.3674084047        9.3706821384
  H        13.0920405937        8.9278123113        8.5197998566
  C        11.0405814037        9.4126379428        8.2604891665
  H        10.2078905351        9.9194715396        8.7907165497
  H        11.2280643883       10.0243474506        7.3826110653
  H        10.7161942264        8.4282990655        8.0614073173
  H        20.7190262690       11.5338558074        3.7930605804
  C        21.2153797624       10.5592754397        3.8244709812
  H        20.4919402825        9.6966266313        3.8865344499
  C        22.2450294949       10.5703951985        4.9145844495
  C        21.8176689030       10.4297768152        2.4231113702
  C        21.5657415447       10.5989178996        6.3176615409
  H        22.6446463389        9.5462826593        4.8055252502
  H        23.0671266133       11.2446931617        4.8038842301
  H        22.2459314754        9.5182488390        2.0982418914
  H        22.7131671674       11.0652449255        2.3351987280
  H        21.1682514314       10.9643103705        1.7271256360
  C        20.8659884688        9.3751516065        6.7397446588
  H        22.1909835088       11.1800925249        7.0657066081
  H        20.8292276689       11.3900632233        6.3055929876
  C        20.1947048130        9.5884506318        8.0217684699
  H        21.6740102858        8.6719605334        6.8568611500
  H        20.2326013697        9.0237384315        5.9372305134
  C        18.8824662135       10.4057389216        7.9951051768
  H        20.8398497454       10.1439634854        8.7181129406
  H        19.9145296017        8.7178153945        8.5073029717
  C        17.6765982996        9.7208735093        7.2210715187
  H        18.4466471777       10.5786575124        8.9536833271
  H        19.1324075573       11.3475851837        7.4998226884
  C        16.4508686676       10.5165537555        6.9671309357
  H        17.4664605031        8.7141946514        7.5143214408
  H        18.1688246821        9.5623465559        6.2854738610
  C        16.7867075648       11.7991104611        6.2350180275
  C        16.1550417245       11.3419058209        8.2294841849
  C        15.2123444839        9.7431382313        6.4333159944
  C        16.6974458552       12.9216484588        7.1073401325
  C        17.2938474837       12.1828942149        4.9816864915
  C        16.2490684236       12.6688322216        8.3367830636
  C        15.8151048640       10.6761893693        9.4536223652
  H        15.5759273593        9.1903776340        5.5847450566
  H        14.9320828108        9.0956154640        7.2571238014
  C        14.0370171576       10.7359786587        6.2532054812
  S        17.1857525984       14.3998228794        6.2720112047
  C        17.4705101001       13.5443523064        4.8625782738
  H        17.4484047215       11.4021746461        4.2274688752
  C        16.0058542377       13.3421065202        9.5305654296
  H        15.7210759864        9.5571634909        9.4709678549
  C        15.5261338753       11.3290868304       10.6110757963
  H        14.4712523380       11.5867494600        5.6999006925
  H        13.5627083345       11.1424360484        7.1017402357
  C        12.9242398193       10.0703840486        5.4347082498
  C        17.8716627965       14.2450024480        3.5979672413
  C        15.6132065980       12.6866170675       10.6821268854
  H        15.9846322439       14.3804071931        9.5299677396
  C        15.1940027380       11.0075784130       11.8951919845
  H        11.9954015758       10.6387987383        5.4883082413
  H        12.6511762843        9.0839237228        5.9074124769
  C        13.3079920488        9.7370432569        4.0061183215
  C        17.8784611274       15.6415311542        3.3923543241
  C        18.3661132929       13.4576588465        2.4394028678
  C        15.2807166785       13.5451940924       11.9032342512
  C        15.0142871163       12.1283185935       12.6365189537
  S        14.8414663185        9.5728470298       12.6688829154
  H        13.5561918653        8.7170578275        3.8860800462
  H        14.0857016128       10.4571121518        3.7045340959
  C        12.1829310946        9.9855995697        2.9820776338
  N        17.5074514730       16.5312993054        4.3384326345
  C        18.0111119610       16.2192235699        2.1599972701
  C        18.5753233983       14.0388491230        1.1874753623
  H        18.4812581521       12.4390925566        2.5644372017
  C        13.9822159813       14.3912703020       11.5811653610
  C        16.3661156367       14.3348010336       12.5172205161
  C        14.4914794814       11.8197951737       13.9200444311
  C        14.4580283358       10.4989919112       14.1433837845
  H        11.3936698068        9.5487615516        3.5436547196
  H        12.0062039686       11.0870562396        2.8123751697
  C        12.4137936008        9.2386711728        1.6536597870
  S        17.5401361255       18.0128327995        3.7420726706
  N        17.9941506199       17.6257075944        2.1983785680
  C        18.4514937357       15.4948881806        1.0054513412
  H        19.0129381910       13.4246475408        0.4395550122
  H        14.2327233440       15.0847519782       10.7785219110
  H        13.7837861480       15.0490366943       12.4229573550
  C        12.7690250783       13.5070184700       11.3389835045
  H        16.6197459135       15.0592127417       11.6959017339
  H        15.9860282611       14.9289436689       13.3451434923
  C        17.6611715115       13.6344454013       12.8725659939
  H        14.2476811168       12.6864905890       14.5683745849
  C        14.0306382915        9.9193778298       15.4291248010
  H        11.3991168057        9.0971226943        1.3323571124
  H        12.7537549521        8.1586897721        1.8249072242
  C        13.2885060240        9.9398221468        0.6128356444
  C        18.6398473052       16.1843128908       -0.1902186228
  H        12.9554620070       12.9394779115       10.3453281902
  H        12.6773489561       12.8116260086       12.1274146209
  C        11.4391952124       14.3192213570       11.1779659880
  H        18.3151226066       14.2561773432       12.3172829443
  H        17.7364753053       12.6597724045       12.3797630800
  C        17.9529735892       13.5112554012       14.3176177390
  C        14.0444988714        8.4877299206       15.6773409707
  C        13.7197099287       10.7332998661       16.6889803808
  H        13.8281699879       10.7821720907        1.1125447552
  H        14.0450573193        9.2512607927        0.2082243593
  C        12.4086511099       10.4742957271       -0.5213848296
  H        18.3929762543       17.2363363882       -0.1898422174
  C        18.9542109876       15.7473063396       -1.4357610193
  H        11.5402446604       14.9101913679       10.2648914790
  H        11.2018958196       14.9152745552       12.1225672383
  C        10.3397006474       13.3766284647       10.8250937296
  H        17.7569806135       14.5007771732       14.7411859560
  H        17.2585993639       12.8710095501       14.7388273411
  C        19.4018914150       13.0872720886       14.6506537248
  N        14.4509882649        7.4408047630       14.7337907524
  C        13.6144300982        7.9406347896       16.8671769374
  C        13.3291288718       10.1576053253       17.9131475994
  H        13.8529880212       11.7935137436       16.5578288188
  H        11.4921007999       10.8541719135       -0.1013658141
  H        12.1680602367        9.5887399067       -1.0771819592
  H        12.9276432502       11.1763400180       -1.1703311874
  S        19.1973987270       14.1463569385       -1.9870034636
  C        18.8812541684       16.7328055419       -2.5483743429
  H        10.7255164446       12.4521689956       10.3696549751
  H         9.7095296050       13.0544422212       11.6807435020
  C         9.3525510312       13.9610914208        9.8296972747
  H        19.4601096988       12.0920017674       14.3926283845
  H        19.5477113348       12.9919123795       15.7451702311
  C        20.5257438076       14.0038145839       14.1746698213
  S        14.2284512854        6.0059497347       15.4135153317
  N        13.5114736645        6.5236835867       16.7623207556
  C        13.2437652662        8.6861707469       18.0581854303
  H        13.2361528341       10.8406068580       18.7362044193
  C        19.2688430109       14.8134698510       -3.6366746182
  N        19.2606817518       16.1432583150       -3.6729967684
  O        18.7086610452       17.9202100771       -2.3908976682
  H         8.8882209693       14.7295344959       10.3989467033
  H         9.8935404832       14.2633157762        8.9343027549
  C         8.3651700128       12.8511185423        9.3001022999
  H        21.4154832536       13.3863029150       14.1106785198
  H        20.4041551492       14.2513801274       13.1644594161
  C        20.7517373125       15.2540629566       14.9403356734
  C        12.9044968331        8.0474391943       19.2659589896
  S        19.7118160632       13.9063898514       -5.1030047023
  C        19.2825671216       16.9460994206       -4.9223263166
  H         8.9074074632       12.4174242123        8.4303109516
  H         8.3211440167       12.0140280412       10.0613698131
  C         7.0477512943       13.4479473836        8.8276153893
  H        21.3102110695       14.9919212887       15.8522804806
  H        19.8454327025       15.7823705179       15.1855935271
  C        21.4400061967       16.2844469011       14.1003483578
  H        13.0303547648        6.9740506189       19.2638541156
  C        12.2426875827        8.5318389371       20.3763067716
  H        19.9993162806       16.6090533105       -5.6420074189
  H        19.6893265264       18.0031224975       -4.7614857028
  C        17.8669091413       17.0072091705       -5.4523040211
  H         6.6509509844       12.9833269978        7.8807223199
  H         7.1242270978       14.5582926117        8.6149051160
  C         5.8972260732       13.2686096569        9.7912896555
  H        22.3474738902       15.9142189677       13.6192719486
  H        20.8344679197       16.5050189462       13.1862197576
  C        21.8323544045       17.6589141919       14.8624716601
  S        11.5581732369       10.0835593306       20.6389110621
  C        11.9974636636        7.6417712691       21.5768918583
  H        17.8456090404       16.1112609939       -6.0449542864
  H        17.5426519431       17.9303979597       -6.0053539632
  H        17.1764894861       16.8474438281       -4.6920412015
  H         6.0024742566       12.3512939330       10.2847789030
  H         5.7904409021       14.0537663001       10.5073665362
  H         4.9396082280       13.3240594560        9.3208927331
  H        20.9495444814       18.0485870853       15.3446003935
  H        22.6625907454       17.4380217158       15.5189520275
  H        22.2621079120       18.3301540248       14.0677187284
  C        11.0287687825        9.5119354068       22.2316340726
  N        11.2969610900        8.2459425659       22.4777496587
  O        12.4158104654        6.4499761323       21.6837469590
  S        10.3881376249       10.5314436278       23.4992468786
  C        11.0926203514        7.6162743463       23.7755733421
  H        10.9355151659        6.5764348271       23.6092070445
  H        10.1919514725        7.9699760172       24.0499396239
  C        12.2955922004        7.8625503770       24.7458275307
  H        13.2054999820        8.2514039238       24.1815357251
  H        12.6194806268        6.9708723463       25.2688904888
  H        12.0163249073        8.6021701211       25.5686801814
