352
 i =    36100, time =    36100.000, E =        24.8588141492
  H        12.1268528097        6.6156186343       32.3587389023
  C        11.8420911082        5.6024184794       32.4362969102
  H        12.6840663554        4.9672478398       32.1600281640
  C        10.7377235751        5.4327539363       31.4279496790
  C        11.3493193737        5.3490484889       33.8819104793
  C        11.2589223234        5.5268727058       29.9949190818
  H        10.4187534472        4.3989862335       31.7219391132
  H         9.8764451855        6.0989515352       31.6255376105
  H        10.3374198370        5.8435232419       33.9957775789
  H        11.2580297203        4.3098736821       34.0891509830
  H        11.9875951640        5.8459523702       34.6340846122
  C        10.3194598547        4.9582103495       28.9770875903
  H        12.1103770195        4.8577795886       29.8070679384
  H        11.6888763901        6.5180891892       29.9248126879
  C        10.6564528617        5.2375992406       27.5475395019
  H        10.2877011904        3.8458248843       29.1042456983
  H         9.3805884188        5.4611364329       29.1714823174
  C         9.5414906484        4.6500296854       26.6734155935
  H        11.5853284496        4.7444569764       27.2796873413
  H        10.9356053791        6.2771351708       27.2830159903
  C         8.3631855361        5.6200410322       26.4218366098
  H        10.1093325070        4.2020970927       25.8586039759
  H         9.1009704499        3.9485187639       27.3388167744
  C         7.3101939608        4.9189437646       25.5788903065
  H         7.9419320284        5.8800096536       27.3985158641
  H         8.8197510991        6.4833416720       25.9844652867
  C         6.9102094215        3.5265185684       26.1500918169
  C         7.7539928031        4.2969386077       24.2944079244
  C         6.0811721447        5.8055601044       25.3909357467
  C         7.2539485528        2.4627990139       25.2526225314
  C         6.4192148854        3.0584914925       27.3326151660
  C         7.7501667497        2.9134722901       24.0633010726
  C         8.2070902621        5.0619676198       23.1670308724
  H         6.3255090990        6.6346336763       24.6777361829
  H         5.8253171517        6.2120903384       26.3430347205
  C         4.9864129504        5.0129273377       24.7298982444
  S         6.9887917452        0.9236187782       25.9643623618
  C         6.4557821470        1.7031346105       27.4105827463
  H         6.1229296833        3.7461833537       28.0507583953
  C         8.2232230609        2.3705686509       22.9286709703
  H         8.2589380351        6.2037296941       23.1463750451
  C         8.6186025815        4.4491470650       21.9676408651
  H         5.2168042401        4.5080793035       23.8280915372
  H         4.5711534015        4.2921025019       25.3491333928
  C         3.7743968972        5.9015528404       24.3853263447
  C         6.1182457727        0.9766425508       28.7224285681
  C         8.6549609741        3.1180705854       21.8476524684
  H         8.3260988350        1.3101699765       22.9430885616
  C         9.0012865085        4.8926665287       20.7460435344
  H         3.2664413175        5.3249965406       23.6487658430
  H         4.2469900620        6.8004057373       23.9781183729
  C         2.8374921210        6.3609628924       25.5587696249
  C         6.1470407633       -0.4343281839       28.9340827558
  C         5.5480114788        1.8084847507       29.8489044687
  C         8.9958230016        2.4756317782       20.5343034405
  C         9.1899355404        3.8766028272       19.8618264250
  S         9.1280422518        6.4676243699       20.0064062928
  H         2.0110912819        6.9695402999       25.1548699890
  H         3.4312071699        7.0911532321       26.1330918823
  C         2.2896854078        5.1644411577       26.3424453342
  N         6.5061950758       -1.5019792007       28.0468259740
  C         5.7997321154       -0.9561951688       30.2145946175
  C         5.2325540299        1.2826071167       31.0927147004
  H         5.3367856002        2.8892999784       29.7638939842
  C         7.8087670385        1.7270561584       19.9093030150
  C        10.3262243839        1.6456652494       20.5794048247
  C         9.6581055880        4.3509505142       18.6216557862
  C         9.7054880789        5.6793210406       18.5360345857
  H         1.9278356549        4.3915321241       25.6895824510
  H         3.1769992018        4.6593889224       26.8769464887
  C         1.2660621528        5.4511202544       27.3612979316
  S         6.3404888769       -2.9318105238       28.8443386336
  N         5.8400286891       -2.4131164965       30.3081666012
  C         5.3103483973       -0.1597877721       31.2603992750
  H         4.6719476390        1.9163521647       31.8645958184
  H         7.5988443398        0.7631644133       20.4569421303
  H         8.1174305103        1.3499797684       18.9683705468
  C         6.5719866149        2.5469044308       19.6924738914
  H        10.5386309971        1.0791675156       19.7198184438
  H        10.2112150677        0.8563473182       21.3149608756
  C        11.5396661471        2.4594285342       20.9529583393
  H         9.8736392433        3.6489706397       17.8639874314
  C         9.9849907092        6.4292162316       17.2244075427
  H         0.6256904724        4.6452263742       27.5066945455
  H         0.4906254584        6.0743412305       26.9943066399
  C         1.8615884750        5.9156425202       28.7263280997
  C         4.9603878690       -0.7717673065       32.4928440002
  H         6.7249938674        3.2420208379       18.8924319822
  H         6.2406095842        3.0872152332       20.6268788718
  C         5.5408667482        1.6722214163       19.1123119089
  H        11.3853399402        2.9971959062       21.8982041312
  H        11.6451598053        3.2117529447       20.1239149909
  C        12.8128254396        1.6018298014       20.9832349181
  C        10.0980880437        7.7847123761       17.0293908363
  C        10.1274852820        5.5753284564       15.9752653848
  H         2.7141423006        6.5394947412       28.6010132079
  H         1.1638758390        6.6056100567       29.2509128823
  C         2.2707855330        4.7118835670       29.6386978397
  H         5.1059456966       -1.8231572992       32.5309422907
  C         4.5921169568       -0.3125744059       33.7669114217
  H         5.1824999867        0.8990593790       19.6889536171
  H         6.0693700692        1.0830032855       18.3779290842
  C         4.4105442627        2.4320773838       18.3820034749
  H        12.7936448437        0.8390027924       21.8319106257
  H        12.7716775333        0.9568600408       20.1365340640
  C        14.0906739756        2.4689943553       21.1564156033
  N         9.7876161968        8.7282319921       18.0909663216
  C        10.4130005237        8.3663466665       15.8058725577
  C        10.5318591287        6.1631582634       14.7363276588
  H         9.9097196564        4.5067884873       15.9313603706
  H         2.1702144936        4.9452551401       30.7133552351
  H         1.6300870211        3.7676474190       29.3953266396
  H         3.3269609702        4.4587832389       29.5925244487
  S         4.4064889158        1.3355157280       34.2440010499
  C         4.4479151129       -1.2816534573       34.8524037896
  H         4.1979296607        3.4166505707       18.9333716308
  H         4.7706736052        2.6748213307       17.3772757304
  C         3.0729291085        1.6464518679       18.3224570160
  H        13.9234100290        3.4016257137       20.6438516156
  H        14.9970651363        1.9934089002       20.7717674664
  C        14.4837172034        2.7275210033       22.6029948186
  S         9.9178329628       10.1912046633       17.4055817416
  N        10.4148107501        9.7543856288       15.8384538064
  C        10.7540350717        7.6310663751       14.6429360846
  H        10.6172348209        5.5679485198       13.8442232524
  C         3.9629424197        0.6846841565       35.8205368146
  N         4.1546364798       -0.6359201390       35.9888425194
  O         4.6134424727       -2.4621553609       34.6687934702
  H         2.4608060592        1.9782708046       17.5021357191
  H         2.4587565889        1.8467027533       19.1791604787
  C         3.2118700760        0.0968607117       18.0647418986
  H        15.1706167151        3.5890049413       22.6882567820
  H        13.6510925290        3.0544797015       23.2003689668
  C        15.1849700663        1.6704698705       23.4264573020
  C        11.0639824665        8.3147077315       13.4360598120
  S         3.6169132082        1.5768539867       37.2719140785
  C         4.1928072662       -1.3795054438       37.2363832005
  H         3.6337625418       -0.0817921744       17.0532596277
  H         3.6954570620       -0.4174149948       18.8973074852
  C         1.8138505024       -0.4967352359       17.9398384385
  H        15.0196263993        0.7139032914       22.8900220069
  H        14.7737070940        1.5949527196       24.3908500529
  C        16.6556049724        1.8440011822       23.6363393560
  H        10.8476676674        9.4112248486       13.4976360279
  C        11.6149406519        7.9536040919       12.2232921844
  H         3.5231969821       -0.9873507009       37.9631343831
  H         3.8608020944       -2.4172733493       37.1788336329
  C         5.5872462346       -1.4437007788       37.7989157251
  H         1.3280233339       -0.0890109738       17.0843251506
  H         1.2312667051       -0.1704090612       18.8443224506
  C         1.7028221268       -2.0367891295       17.8459431376
  H        16.8225601738        2.6697078610       24.2578092439
  H        17.0054520902        1.0179993137       24.1984672577
  C        17.5509126745        1.8456115898       22.4278344989
  S        12.0633862992        6.4164470619       11.6887165152
  C        11.8773079506        9.1242342521       11.2994102578
  H         5.7570155849       -2.4120817680       38.3362530324
  H         6.3436003649       -1.4420820023       37.0369242227
  H         5.9307548592       -0.6381729313       38.4135028443
  H         2.6493837720       -2.5483126584       18.0941956509
  H         1.4858028773       -2.3091576679       16.7982788610
  H         0.9343735574       -2.5835663293       18.4096429427
  H        18.6145151341        1.9296162462       22.6541591865
  H        17.3201017311        2.6295447011       21.7281007700
  H        17.3333842934        0.8900997865       21.9529683299
  C        12.5566011635        7.2185658579       10.2222581780
  N        12.4390977524        8.5862902296       10.2376293895
  O        11.4612162593       10.2757997663       11.4948733314
  S        13.2664424041        6.4055694516        8.8527881483
  C        12.5791094260        9.3728407820        9.0350641836
  H        12.7463370654       10.4297176997        9.4029843945
  H        13.4261991878        8.9579703166        8.5243863042
  C        11.3638102371        9.3030495641        8.1880765837
  H        11.5010448261        8.7557071981        7.2249627781
  H        10.5672793940        8.6444083768        8.6017110402
  H        11.0106024776       10.3227806850        7.9425680153
  H        20.8422909447       11.2202427487        3.9971877613
  C        21.6447077909       10.4671819356        4.0496672731
  H        21.0315463486        9.4638088801        4.1442292861
  C        22.6181919018       10.6587808835        5.2472395712
  C        22.3504089062       10.5652394041        2.7741086239
  C        21.8349358130       11.0629067491        6.5061027254
  H        23.1062251950        9.6934670501        5.3631888712
  H        23.2949936216       11.4245632623        4.9462443457
  H        21.6717526306       10.3488707317        1.8420472842
  H        23.1087416696        9.8143776038        2.6982720627
  H        22.8200749986       11.5154385848        2.6073717335
  C        21.1657829864        9.8634115045        7.1687016574
  H        22.5912894010       11.4822234568        7.2105301005
  H        21.1898664174       11.8385581616        6.2824643532
  C        20.4200196074       10.1212658327        8.5086972737
  H        21.8869973123        9.1096857746        7.2904821154
  H        20.5605785183        9.3485302827        6.4381451688
  C        19.0716975265       10.8930284959        8.3125710590
  H        21.0435672260       10.6847271023        9.1758724938
  H        20.2451530836        9.1176685542        8.9555363874
  C        18.0113892341       10.1255335640        7.6048324082
  H        18.7869733080       11.2456111116        9.2383926658
  H        19.4061837152       11.7909608643        7.7947115696
  C        16.8400395042       11.0411585413        7.2038989115
  H        17.4844835465        9.4697700900        8.3317130394
  H        18.3801986282        9.5463104517        6.6968363694
  C        17.2080385466       12.3874891410        6.5318226223
  C        16.3739537867       11.7855368949        8.4437239327
  C        15.7126655716       10.2593530623        6.5007710262
  C        16.8418603356       13.5032465630        7.2965980385
  C        17.6632399251       12.7022170104        5.2651877242
  C        16.3717344088       13.1698233520        8.5439322421
  C        15.9297626499       11.0845585945        9.5272495868
  H        16.1448298990        9.8964353454        5.4954651658
  H        15.4102308297        9.3313111483        6.9348404637
  C        14.4305358910       11.1285113952        6.1795309104
  S        17.2929980538       14.9377399402        6.4588064950
  C        17.6896361040       14.0758143828        5.0541211299
  H        17.8795375034       11.9173102882        4.5629742963
  C        16.0076959244       13.7145763257        9.7523648047
  H        15.8118502502        9.9980148441        9.4156316816
  C        15.6073534902       11.6498120523       10.7269428380
  H        14.7803499228       12.0904746253        5.7166802625
  H        14.0024190357       11.4317593625        7.1687842077
  C        13.4589702494       10.3692671827        5.2141205180
  C        18.1392392678       14.7248320438        3.7454355202
  C        15.5805090766       12.9904628006       10.8635959500
  H        16.0355305957       14.7774320904        9.8378155562
  C        15.1607866113       11.2174700747       11.9080497602
  H        12.5512436104       10.9487921934        5.0791516665
  H        13.2672566285        9.4091313908        5.6371160015
  C        14.0088627566       10.1641656266        3.8282879892
  C        18.1728308627       16.1410757816        3.4885389530
  C        18.5479508913       13.8385557490        2.6221197261
  C        15.2295861501       13.6797773085       12.1289599207
  C        14.9977649324       12.2207716526       12.7743981377
  S        14.8258681088        9.6408987931       12.5717770335
  H        14.7116554233        9.3457763922        3.6810757464
  H        14.5930952797       11.0261494420        3.4782322379
  C        12.9306373757        9.8923514978        2.7622930343
  N        17.9851867774       17.1500619450        4.4006975220
  C        18.4100583539       16.5901959835        2.2088251795
  C        18.8479375675       14.3942422493        1.4087114233
  H        18.6248270384       12.7464875144        2.6956463012
  C        13.8962792063       14.4278723011       11.9225814883
  C        16.4660679950       14.4056406748       12.7696836329
  C        14.6630936233       11.7649445265       14.0903454701
  C        14.5009447919       10.4018336407       14.0980797616
  H        12.4686522677        8.9775920143        3.1069743831
  H        12.0999326002       10.6331372055        2.8270348554
  C        13.5319096475        9.8832733573        1.3748309930
  S        18.0897670466       18.5868189600        3.5491380115
  N        18.3543230180       17.9856685504        2.0251162607
  C        18.6904041497       15.7299923054        1.1033790673
  H        19.0113001249       13.7242352774        0.6304270858
  H        14.0711278555       15.1215568215       11.1035294773
  H        13.7909524357       15.0882254312       12.7332394013
  C        12.7224412807       13.5514203582       11.4660699711
  H        16.7778535142       15.2293493567       12.1529426066
  H        15.9956018634       14.8617952772       13.6347098515
  C        17.6613790436       13.5631232405       13.1705472823
  H        14.4964443886       12.5204607800       14.8861434400
  C        14.1204960863        9.6592320703       15.3827636380
  H        14.0980314632        9.0098325270        1.1427550984
  H        14.2737486038       10.6440884827        1.2226350341
  C        12.4237284458        9.9648339028        0.3175222575
  C        18.9213562898       16.3237988013       -0.2005773871
  H        12.9946099725       13.1071492456       10.5045915656
  H        12.6261943948       12.7741498844       12.1885347944
  C        11.3941281129       14.3032959113       11.3695139185
  H        18.2710857916       13.1029168818       12.3475337314
  H        17.3345127513       12.8975556335       13.9344740220
  C        18.5906684343       14.4985696090       13.9456198482
  C        14.0165080547        8.2736188319       15.5637588469
  C        13.6509303707       10.4097506466       16.6047007118
  H        11.9696277390        9.0448535029        0.2233351807
  H        11.7613235488       10.7730221767        0.4546052207
  C        13.0679541285       10.1088846989       -1.0391589902
  H        18.6944959222       17.4162311179       -0.2370765851
  C        19.1318839523       15.8003576889       -1.4739572044
  H        11.4498408782       15.0763775860       10.6022721306
  H        11.2682087103       14.7842145296       12.3023329681
  C        10.2367597906       13.4028004461       10.9070917585
  H        18.9687239046       15.2971399729       13.3381870722
  H        17.9925576282       15.0240783324       14.7332366244
  C        19.8215916343       13.8230954255       14.4781177690
  N        14.2168255245        7.3854375397       14.5028058576
  C        13.6574975760        7.5761346381       16.7235670134
  C        13.3976735441        9.7278303781       17.7757161122
  H        13.5821624650       11.4541857121       16.6423620458
  H        12.3987541745       10.4915891989       -1.7653926996
  H        13.4994093612        9.1582428584       -1.3871337762
  H        13.9603502189       10.7575160515       -1.1673869686
  S        19.3544483537       14.1638241173       -1.9259498254
  C        19.2890982413       16.8133636883       -2.5318031902
  H        10.6591403555       12.5406992390       10.3516075597
  H         9.5886462035       13.0726235368       11.6768040125
  C         9.4714087506       14.0629223303        9.8303715283
  H        20.1377683310       13.0356854611       13.7913600026
  H        19.6006582050       13.3855353268       15.4983793312
  C        21.0666566653       14.7396657203       14.4893206001
  S        13.8515127447        5.8485137386       15.0386441923
  N        13.3963661250        6.2381835722       16.5441569086
  C        13.4349350368        8.2491492379       17.9178765438
  H        12.9429223594       10.2867022311       18.6186281911
  C        19.8466052324       14.8261045368       -3.5477561345
  N        19.7059338725       16.1967538536       -3.6410091987
  O        19.1933986900       18.0360586378       -2.3530004819
  H         8.7836743093       14.8098066550       10.2181303591
  H        10.1128637922       14.5914216666        9.1528577841
  C         8.5704058241       13.0526335513        9.0488747298
  H        21.9477716311       14.1237820255       14.4967440582
  H        21.2601556077       15.3817773844       13.6097891485
  C        21.0192202426       15.7104883706       15.7058687936
  C        13.1570657618        7.5519647607       19.0870443945
  S        20.3337620566       13.9546953621       -4.9967260363
  C        19.7601908138       17.0356612262       -4.8206173893
  H         9.1820644257       12.7750675487        8.2285208577
  H         8.3479547130       12.1739028570        9.5745118428
  C         7.2041845522       13.5110694528        8.5251978292
  H        21.3969933217       15.2574881702       16.5740852029
  H        19.9563060310       15.8357471222       15.9107600290
  C        21.7705607601       16.9992207564       15.4515893526
  H        13.4364124813        6.5269904298       18.9650019531
  C        12.6163626513        7.9232332361       20.2984335676
  H        20.5507192247       16.8436006404       -5.5934456323
  H        20.1718380442       17.9927644619       -4.5368801988
  C        18.3468712769       17.2356855053       -5.4789262164
  H         6.8258895732       12.8784305477        7.7311856469
  H         7.4250824560       14.4719171349        8.0376579240
  C         6.0643229448       13.6520534332        9.5590759889
  H        22.2122030178       17.4350716646       16.3581400405
  H        22.6283910738       16.8282371918       14.8029519997
  C        20.9483382725       18.1258954974       14.7948237436
  S        12.1285805679        9.4647937548       20.8515532866
  C        12.3770876077        6.8377036092       21.2520239607
  H        17.5788055800       17.1379139704       -4.6840669016
  H        18.2006952424       16.6158830405       -6.3798863364
  H        18.3674013716       18.2500552860       -5.8981759272
  H         5.8159106667       12.6274947785        9.8828298063
  H         6.3864501239       14.2833984825       10.4148117616
  H         5.1432255438       14.1946880032        9.2541732106
  H        21.4732406485       18.7000150384       14.0170007398
  H        20.2015354588       17.6556170359       14.1962963257
  H        20.4027575015       18.8113484594       15.4912963653
  C        11.5851495363        8.6156138791       22.3272696134
  N        11.7357852506        7.2688230402       22.3556842989
  O        12.6175789550        5.6461757344       21.0140191170
  S        10.9164847130        9.4731734530       23.7123398406
  C        11.5604698275        6.3557300852       23.4742039728
  H        11.2070241867        5.4050193826       23.1656921981
  H        10.7295188717        6.7179606610       24.1568533560
  C        12.7447641774        6.2525942104       24.3887521867
  H        13.7260437218        6.4307811071       23.8986094029
  H        12.7194521485        5.2501611470       24.8782939869
  H        12.6688078423        7.0016653557       25.1830298962
