352
 i =    48000, time =    48000.000, E =        24.6926985191
  H        11.4217013707        7.5248254596       32.6143939157
  C        11.3103714828        6.5001943809       32.2847021248
  H        12.2810964326        6.0579143074       32.1484341115
  C        10.4486871063        6.4464935067       30.9975722246
  C        10.6276995686        5.7981682685       33.4560851747
  C        11.0973020829        5.7335623197       29.8120719957
  H         9.5426144103        5.9133145897       31.3885745163
  H        10.0963582905        7.4074967063       30.7778805328
  H        11.2629018135        5.9145722550       34.4162044464
  H         9.6839128326        6.3359917930       33.7975812009
  H        10.4161323147        4.7137427995       33.2273402411
  C        10.2463731876        5.2557258063       28.5618267309
  H        11.6970459890        4.9563275499       30.2004956925
  H        11.7369682467        6.5513935533       29.4627672256
  C        10.6992491655        5.5513574738       27.1220203873
  H        10.1972001131        4.1573450392       28.6658715231
  H         9.1932183159        5.5674984414       28.6997372812
  C         9.6849567144        4.9383302407       26.0841498724
  H        11.7009541049        5.1753565984       26.8814857283
  H        10.7867884054        6.6051397599       26.9435543275
  C         8.5193863833        5.9504009462       25.9399795370
  H        10.2395042345        4.7718327505       25.1293598920
  H         9.3624552461        4.0021507175       26.4781804137
  C         7.3543781778        5.2350582000       25.1425192984
  H         8.0850168135        6.2738767675       26.8924051596
  H         8.8053981178        6.8637068126       25.3617368463
  C         6.9863686539        3.8604206746       25.8166982183
  C         7.7429419510        4.4574871360       23.9299813180
  C         6.1696589543        6.1876555793       24.9335306403
  C         7.1821673775        2.7440215591       25.0697511615
  C         6.4117497229        3.5404904884       27.0591570115
  C         7.6661365656        3.0849227271       23.8473240060
  C         8.2377761174        5.0725842381       22.7628200720
  H         6.4259316078        6.8005104304       24.1569043616
  H         6.0284179395        6.9100142493       25.7400644838
  C         4.9154603767        5.4500411864       24.4937160015
  S         6.8658806396        1.2514377631       25.9034103292
  C         6.2680237815        2.1649060161       27.2689668968
  H         6.1457935964        4.2980594409       27.7689750541
  C         8.1705081508        2.4312841664       22.7383093967
  H         8.1309457706        6.1417680083       22.6755326086
  C         8.6370641607        4.4048251888       21.6329336950
  H         5.1135403139        4.9010845257       23.5952505238
  H         4.6253529615        4.7480451063       25.2494070396
  C         3.6638552950        6.2924198839       24.2352397445
  C         5.7911105007        1.5298514996       28.5601508956
  C         8.6668441041        3.0745479501       21.6636940972
  H         8.1118769947        1.3132636406       22.8236766746
  C         9.0780249367        4.8158428383       20.4444478900
  H         3.0228992278        5.6554020693       23.6721455054
  H         3.8160837926        7.1461320102       23.6075375252
  C         3.0668358269        6.6120533394       25.6229362422
  C         5.7817090345        0.1389308497       28.8315707340
  C         5.4511691563        2.3876807182       29.7023583421
  C         9.0553941487        2.3322473144       20.4730798809
  C         9.2140235714        3.6822732172       19.6346394365
  S         9.4256869954        6.3132801778       19.5979296647
  H         2.3786886680        7.4775982916       25.4578944825
  H         3.8671518908        6.9080832620       26.3295690902
  C         2.1949797761        5.3657108466       26.1598933039
  N         6.1033252704       -0.8481224479       27.9544079325
  C         5.5617677415       -0.3814084198       30.1140105295
  C         5.1716699525        1.9115043415       30.9743016328
  H         5.6693520963        3.4252482656       29.5985832709
  C         7.7775844371        1.5240847032       19.9280134415
  C        10.2949996556        1.4270444332       20.5688271672
  C         9.4714603055        4.0542136001       18.2610314160
  C         9.6545387299        5.4041729694       18.1403070780
  H         1.5188086341        4.9868696999       25.3409781091
  H         2.8535316975        4.5909985918       26.5019642600
  C         1.3506918288        5.8360066164       27.4019815049
  S         6.1160946381       -2.3458727817       28.7275967194
  N         5.5916066978       -1.8038907122       30.1672421297
  C         5.2488187799        0.4268276538       31.2203579763
  H         5.2713598157        2.5813210687       31.8348351257
  H         7.5229793308        0.7924657606       20.6628664978
  H         8.0815089119        1.0191054653       18.9970919769
  C         6.4681955155        2.2702731692       19.4528124379
  H        10.4622577120        0.8578057287       19.7039684489
  H        10.1698720234        0.6175635396       21.2107459656
  C        11.5651965697        2.2373133505       20.9117936268
  H         9.6367806801        3.3412790873       17.4921212582
  C         9.8900605754        6.1472224432       16.8070327838
  H         0.5304367931        5.1120510882       27.5198024906
  H         0.9733860661        6.8362256141       27.1968278557
  C         2.0496735971        5.8817539542       28.7905070915
  C         5.1330313556       -0.1721503177       32.5090364869
  H         6.7348556397        2.9146755476       18.5999685239
  H         6.0731790570        2.9454619425       20.1700196268
  C         5.2497281144        1.3748863581       19.1142243578
  H        11.3374702391        2.9554007211       21.6948825605
  H        11.9131112381        2.8424353563       20.0615046924
  C        12.6733995195        1.2222002751       21.4064740260
  C        10.0472253633        7.5441489322       16.6364590444
  C         9.8600650092        5.4388720733       15.5352057542
  H         2.7653196583        5.1189490414       28.8049817181
  H         2.6719717439        6.7944401644       28.8578740370
  C         1.1313596521        5.8263685787       29.9919693238
  H         4.9452409446       -1.2050252129       32.5351719982
  C         4.7676424926        0.2085446876       33.7814578632
  H         4.5919341939        1.1211880070       19.9752336878
  H         5.6671124191        0.4037034620       18.7436906717
  C         4.3207909087        1.9717760247       18.0768864777
  H        12.7073344031        1.1215603518       22.5014844554
  H        12.4802882927        0.2939975628       20.8904475563
  C        14.0038185943        1.7298729598       20.9462547486
  N         9.8559408489        8.4949848239       17.6533190307
  C        10.3432711584        8.1584287941       15.4270996386
  C        10.1637813869        6.0771461765       14.3439583640
  H         9.7023547797        4.3885369588       15.4658909550
  H         0.4246024083        5.0485407880       29.8195302807
  H         1.7557056108        5.7382360533       30.8744542994
  H         0.6761216033        6.8547223382       30.1190287000
  S         4.2662177886        1.8228236821       34.0828288288
  C         4.6944475537       -0.7756841246       34.8761691567
  H         4.1005405074        2.9615946711       18.4824715328
  H         4.8672882053        1.9721561073       17.1439836622
  C         2.9898110479        1.1969698714       17.9713151965
  H        13.8261584839        2.3333363261       20.0781842654
  H        14.6111638633        0.9096171598       20.6392956324
  C        14.7457112768        2.4657849998       22.0414771940
  S        10.0584963023        9.9669134660       17.0624591597
  N        10.3795858593        9.5707536278       15.5418226279
  C        10.6121037305        7.4729053697       14.2072922485
  H        10.2017670529        5.4983132625       13.4314639150
  C         4.1017075733        1.2277038104       35.7608020251
  N         4.3049549187       -0.1032728461       35.9765187352
  O         4.9314802249       -1.9915174160       34.7910329951
  H         2.2558670115        1.7746476344       17.3465130208
  H         2.5067524339        1.1368322058       18.9775556866
  C         3.2336268666       -0.1954120128       17.3558440420
  H        15.3613811368        3.1888662356       21.5453968030
  H        14.0252115114        2.9647401637       22.7446521737
  C        15.6354403767        1.5746363341       22.9469534263
  C        10.8942702007        8.2656813980       13.0079325936
  S         3.7487037423        2.3031748155       37.1232634954
  C         4.1811326598       -0.7963417193       37.2316478228
  H         3.8792556837       -0.1798531346       16.5457108925
  H         3.8154112181       -0.8638420486       17.9422219256
  C         1.9709049201       -0.8863677838       16.9090911246
  H        16.0915246831        0.7307689515       22.3914507695
  H        15.0289068077        1.1517492067       23.7210660269
  C        16.7353301597        2.4169761861       23.5601542902
  H        10.7194597849        9.3323858648       13.1485547365
  C        11.4186826177        7.8975420943       11.8108445619
  H         3.6894122840       -0.2234843814       38.0122569022
  H         3.5685083129       -1.7535722595       37.0871473076
  C         5.5665332533       -1.0978112008       37.8617684435
  H         1.6273347101       -0.7705053336       15.8912597729
  H         1.1183576764       -0.4882937744       17.4804046363
  C         1.9669665208       -2.3540117298       17.1779449179
  H        16.2642740207        3.3239113119       23.9089460272
  H        17.1235809694        1.9486496808       24.5020294139
  C        17.8478557253        2.6838286766       22.4903166916
  S        12.1432349123        6.3210452558       11.3279144297
  C        11.5462173360        8.9632300544       10.7564153481
  H         6.1760218263       -1.7382529377       37.1111518656
  H         6.1064267118       -0.2089409382       38.0625758633
  H         5.6126735050       -1.6720813085       38.7997148317
  H         2.0522518479       -2.4908207379       18.3033105832
  H         2.7135943340       -2.9220230059       16.6899535114
  H         1.1109620801       -2.8119654834       16.7914634577
  H        18.1671686272        1.8522898709       21.9026356905
  H        18.7557814619        3.0193913058       22.9694771731
  H        17.4764047731        3.5354775772       21.9383929177
  C        12.3155753024        7.1228696499        9.7321141688
  N        12.0934088463        8.4589228223        9.6418332046
  O        11.1571799908       10.0999643664       11.0058209534
  S        12.6553568528        6.2679436769        8.2317448302
  C        12.1092197021        9.3984132452        8.4998612720
  H        12.4197195422       10.4062570104        8.8423800677
  H        12.8546430510        9.1217368877        7.7380274693
  C        10.7387358472        9.4560585947        7.9065688787
  H         9.9014880506        9.5490502556        8.5762266832
  H        10.7538997306       10.3442117352        7.3352443971
  H        10.5754376812        8.5324430380        7.2953028878
  H        20.8039977578       10.8973045266        3.6265087514
  C        21.6840128231       10.2803038868        3.5333653541
  H        21.3572312218        9.2956182291        3.6000496828
  C        22.6911959884       10.5310833779        4.6476198143
  C        22.3053062861       10.4683658660        2.1409915592
  C        22.1113902357       10.6191273266        6.0211979196
  H        23.5096041832        9.7302552985        4.6953235146
  H        23.1969573720       11.4783266488        4.4719439823
  H        23.1586680225       11.0848562452        2.1904116117
  H        21.6086264811       10.9624975861        1.4728724490
  H        22.4820423959        9.5124486292        1.7235338226
  C        21.2592245536        9.3945350859        6.3883414031
  H        22.9316560962       10.7556673101        6.7050918553
  H        21.4018054222       11.4478356821        6.1869346769
  C        20.3986024970        9.4221279512        7.6234293292
  H        21.8445727489        8.4737911159        6.4447907629
  H        20.4966926415        9.2155976093        5.6496464958
  C        19.1237452421       10.2853689817        7.5799317371
  H        21.0211230226        9.7729674481        8.4499257855
  H        20.1549075378        8.4062694770        7.8414949109
  C        17.9312369448        9.5001526256        7.0602683560
  H        18.7491063868       10.5705672177        8.6221107745
  H        19.4297574067       11.1847009308        7.0730805965
  C        16.6523794323       10.3822079043        6.9544748115
  H        17.7496272696        8.6819003228        7.5916374321
  H        18.0679745481        9.1962320940        5.9710206723
  C        17.0606735496       11.5949444743        6.2236060875
  C        16.1972890115       11.1410617994        8.1327527308
  C        15.4791997134        9.6123116095        6.2145139568
  C        16.8734126990       12.7227008022        6.9672964018
  C        17.4828222595       11.8921518438        4.9312964276
  C        16.3061657827       12.4554236727        8.2037399209
  C        15.7981674523       10.5154385865        9.3512960899
  H        15.8730922526        8.8864708576        5.4812774170
  H        14.9720696373        8.9383409136        6.9509347038
  C        14.4429083075       10.6244548703        5.6212461974
  S        17.3970633380       14.1640517342        6.1619131811
  C        17.6966116831       13.2449239894        4.7494735287
  H        17.5524312773       11.1068147995        4.2231800435
  C        15.8578200809       13.1742239854        9.3064032926
  H        15.7069097922        9.3994824809        9.3819507666
  C        15.3841750852       11.1806044809       10.4379122342
  H        14.8942525089       11.4059809922        5.0107755061
  H        13.9634095531       11.1999481003        6.4564096584
  C        13.4742988656        9.9891791925        4.6112407448
  C        18.0289415617       13.9790189070        3.4513075662
  C        15.3405627238       12.5064628276       10.4577649626
  H        15.8726537751       14.2094854871        9.2810835426
  C        14.9274855249       10.8195728410       11.6704618185
  H        12.4948294146       10.4171322199        4.6789902366
  H        13.1740575682        8.9731663936        4.8547731430
  C        14.1223127653        9.8821425006        3.2474365356
  C        18.0025465469       15.4071469143        3.1952309355
  C        18.4844404970       13.2124217832        2.3290086425
  C        14.9552582138       13.2225027606       11.7442652195
  C        14.7289327836       11.9146778006       12.4713613989
  S        14.6825622438        9.3243881629       12.4221135616
  H        14.9441230987        9.1939898989        3.5304572685
  H        14.5536558414       10.8581300621        2.8232615797
  C        13.0951670759        9.3224105085        2.2768580173
  N        17.7022651652       16.4105018490        4.1208427986
  C        18.2839226301       15.9439593564        1.9692990784
  C        18.7966370924       13.7725593759        1.1128329073
  H        18.5405786894       12.1600636358        2.5179202449
  C        13.6686258754       14.1428299959       11.6172820219
  C        16.1149479030       13.9773341045       12.5317573542
  C        14.1809593243       11.5537310132       13.7213215339
  C        14.2025042241       10.1370300782       13.7912214576
  H        12.5131276668        8.6338165158        2.8523361683
  H        12.5014454802       10.2172065081        1.9050701399
  C        13.6981941820        8.7204723903        1.0695920518
  S        17.6443004805       17.9111157019        3.4611792831
  N        18.0565511277       17.3595301453        1.9505922315
  C        18.7476433001       15.2278873944        0.8708353440
  H        19.1220639333       13.1163622041        0.3434347573
  H        13.9060423751       15.0314161157       10.9828579083
  H        13.4013875408       14.5532207242       12.5607262630
  C        12.4575677434       13.3172625951       11.1388124549
  H        16.1609998946       14.9769777502       11.9523610804
  H        15.7695625995       14.1645992490       13.5483882019
  C        17.5297587149       13.3790014363       12.5197837003
  H        13.8001946284       12.3575186837       14.4338989759
  C        13.8261191866        9.3692620331       15.0895267219
  H        13.1110313541        7.8665660848        0.8496059108
  H        14.7872396232        8.5306331508        1.3491673895
  C        13.5747926506        9.7212542828       -0.0968056098
  C        18.9004734051       15.8990593675       -0.3637075478
  H        12.7807652796       12.6832528337       10.2084070941
  H        12.2332617589       12.4926721912       11.8311586063
  C        11.1594813578       13.9487671954       10.9051684703
  H        17.7322989804       13.1713776053       11.5254470615
  H        17.4799777349       12.4172485310       12.9992729453
  C        18.5434179803       14.3228507370       13.1863412842
  C        13.7576847449        7.9847441321       15.2537453284
  C        13.7462098623       10.0971654527       16.3493216554
  H        13.8734055456       10.6604674380        0.2252724382
  H        14.2874949328        9.6277373368       -0.8572716614
  C        12.1620851716        9.8984854086       -0.6748512723
  H        18.8880380576       16.9429355004       -0.3147262235
  C        19.2154869679       15.4135989825       -1.6292935682
  H        11.3825355190       14.8002460227       10.2995787897
  H        10.7845683593       14.2835474711       11.9227584157
  C        10.1525134848       13.0304483417       10.1240791099
  H        18.5638266485       15.1626967210       12.5023564096
  H        18.0689525330       14.6656686757       14.0597259902
  C        19.8832263071       13.6697259366       13.4261359983
  N        13.9509777788        7.0246543851       14.1948670487
  C        13.4010121293        7.3251775052       16.4548284982
  C        13.4722644529        9.4196042527       17.5787018461
  H        13.8173060549       11.1675963565       16.3027494239
  H        11.4740237880        9.3358129445       -0.0376471159
  H        12.0892768010        9.5481360065       -1.7049897022
  H        11.8370381805       10.9342289896       -0.7187027930
  S        19.6221131350       13.7576903559       -2.1063700244
  C        19.3271129243       16.4690421714       -2.6777284316
  H        10.6667480777       12.4676666841        9.4192240762
  H         9.6856223357       12.2602986458       10.7284447705
  C         9.0587143785       13.9315369205        9.5614676774
  H        20.0801796763       13.0036543833       12.6790020722
  H        19.8213314515       13.0694070026       14.3186099932
  C        21.0867881825       14.6259184618       13.5450904561
  S        13.7002094887        5.5631826509       14.8018386225
  N        13.2245029387        5.9390415598       16.3205333115
  C        13.1407717382        7.9902741731       17.6270558745
  H        13.5285833111       10.0045764899       18.4221758274
  C        19.8083167309       14.4710196553       -3.6847269742
  N        19.7905311428       15.8350712805       -3.7821378303
  O        19.1200772824       17.6415703527       -2.5537613947
  H         8.5536044943       14.5171867636       10.3418219843
  H         9.4640468305       14.4990300612        8.7706083151
  C         7.9058880934       13.1124619277        9.0000326116
  H        21.9439502747       13.9226261693       13.5252236555
  H        21.2434104821       15.1287875913       12.5487142716
  C        21.0958596823       15.5471918021       14.8402495753
  C        12.9124920147        7.2389165794       18.8405729310
  S        20.1252530941       13.5113772322       -5.1286080296
  C        19.9133399898       16.4442119843       -5.0991527717
  H         8.2118197619       13.1896333958        7.9574636549
  H         7.8055412076       12.1353608360        9.4199036527
  C         6.5041834882       13.8068090330        9.0746378663
  H        21.5140541483       14.9071476070       15.6024001138
  H        20.1236655754       15.8428350652       15.1177166077
  C        21.9316082720       16.7625181971       14.5277488975
  H        13.1643349776        6.1527402818       18.7523124513
  C        12.4546775866        7.5911371733       20.0946726381
  H        20.6810926347       16.1082925137       -5.8044194857
  H        20.2553142496       17.4271428552       -4.8458007464
  C        18.4924577304       16.6303182708       -5.6737472032
  H         5.9049014403       13.6146822663        8.1646449786
  H         6.5131538305       14.9273201134        9.1653156823
  C         5.6815336624       13.3023461232       10.3548329342
  H        22.8408251487       16.5096025565       14.0462389076
  H        21.3889567643       17.4916346313       13.9619093761
  C        22.0638050387       17.4280198110       15.8885530797
  S        11.9727912920        9.1869046951       20.5447156743
  C        12.3192491906        6.4928121067       21.1090832962
  H        18.3992661271       16.8878016864       -6.8082404193
  H        17.9829469991       17.2852262444       -5.0982374062
  H        17.9128399459       15.7701779944       -5.4848003614
  H         4.9053606306       12.5685266920       10.0874599659
  H         6.1702778941       12.6706805178       11.0743454204
  H         5.0801606187       14.0929532378       10.7944105864
  H        21.1404246444       17.8850594969       16.2678093813
  H        22.2779692891       16.6668328546       16.5896605299
  H        22.7617255077       18.2422455156       15.9576909184
  C        11.5720558929        8.4850330037       22.0965681454
  N        11.7374510507        7.0932548921       22.1874131602
  O        12.5347727012        5.3450951203       20.8884068150
  S        10.8679117718        9.2424626214       23.5025130587
  C        11.6298648999        6.3369711715       23.3979489253
  H        11.4538055891        5.2104941234       23.2498943525
  H        10.8942536811        6.7055523687       24.0920868558
  C        12.9796464787        6.5442541780       24.1375758482
  H        12.8571948303        6.6327987107       25.2533466619
  H        13.5490039766        7.4586187767       23.7980154164
  H        13.6587519768        5.7696761953       23.8969320965
