352
 i =    74400, time =    74400.000, E =        25.2788405970
  H        11.6746891384        7.1852657639       32.2055771772
  C        11.1072773712        6.2933702195       32.1810546173
  H        11.8132502732        5.4393720863       32.1904850523
  C        10.3227740329        6.2996751410       30.8515447711
  C        10.3059651777        6.1425091129       33.4347162652
  C        11.1194970590        6.4468393416       29.5239801831
  H         9.6337196253        5.4094194666       30.9136019548
  H         9.6780163691        7.1528423057       30.8798489104
  H        10.2764438573        5.1637154802       33.8700104052
  H        10.6787471128        6.7820506125       34.2411309690
  H         9.3132626741        6.4858952175       33.2303730080
  C        10.7506884426        5.4405914867       28.4233251186
  H        12.1631331979        6.2415167333       29.6904467241
  H        10.8906782234        7.4514751293       29.1038505768
  C         9.9454009634        6.0799739122       27.3061758744
  H        11.6772576301        5.1340065812       27.9196378487
  H        10.1977631068        4.5964291846       28.7585593365
  C         9.0461674784        5.1868006298       26.5951688830
  H        10.5971143391        6.7108045273       26.6817165121
  H         9.1918249633        6.7491786500       27.7561719331
  C         7.9095642640        5.9537479598       25.8518536101
  H         9.6360329053        4.5302793627       25.9055120925
  H         8.5649263916        4.5976781445       27.3640662198
  C         6.9047864235        5.0847384481       24.9798708505
  H         7.2442071080        6.5162743239       26.6433237127
  H         8.3549229855        6.7943299866       25.2526793907
  C         6.6849592400        3.7207328860       25.7053830288
  C         7.5412688732        4.4149263124       23.8473407402
  C         5.6226062771        5.8408561564       24.5086562907
  C         7.0572354347        2.6345265572       24.9324837908
  C         6.2784663487        3.2867015542       26.9672242069
  C         7.5303107077        3.0678758861       23.7382178447
  C         7.9919073867        5.1238058917       22.7597287743
  H         5.2769670352        5.2557161029       23.7153540959
  H         5.7672571611        6.8047754694       24.1287458576
  C         4.5473876795        5.9164708723       25.5927338019
  S         7.0736207749        1.1257589862       25.8377153872
  C         6.4254824633        1.9416807265       27.1836559080
  H         5.9082589015        4.0518553662       27.7045574842
  C         8.0227460236        2.4870591727       22.5657113369
  H         8.1296674487        6.1799923245       22.7712546148
  C         8.2926560773        4.5292879161       21.5605579065
  H         4.5431238037        5.0575162614       26.2227352101
  H         4.8191407118        6.7051570216       26.3160673463
  C         3.1679591880        6.1439427846       24.9663536369
  C         6.0830361090        1.2938049169       28.4761942953
  C         8.3516806123        3.1800611159       21.4199858487
  H         7.9660187061        1.4122788152       22.5253384484
  C         8.8072296892        4.9276451831       20.3590145751
  H         2.8130817525        5.2555164053       24.4195410636
  H         3.3048343988        6.9109954302       24.2441921466
  C         2.2048398380        6.6844962488       26.0123374080
  C         6.1058130642       -0.0909390769       28.7952701109
  C         5.5788015784        2.1892895654       29.6318876999
  C         8.7784143093        2.4995951202       20.1793880130
  C         9.1454467675        3.8185461495       19.5919517704
  S         9.1583977182        6.4172268633       19.5868078286
  H         1.4124864207        7.0440766027       25.4626636533
  H         2.5509786961        7.6016090909       26.5619816972
  C         1.8975294428        5.5477911346       27.0417535913
  N         6.5457722974       -1.1129839713       27.9122554199
  C         5.7341765727       -0.5690851630       30.0125417047
  C         5.2062294626        1.6806555722       30.8762023994
  H         5.3848581463        3.2034867735       29.5121388898
  C         7.6087465440        1.8295596072       19.4597505504
  C        10.0408185555        1.6483147445       20.3662165080
  C         9.5841785963        4.2336633261       18.3062182681
  C         9.5832135507        5.5655823841       18.0796136976
  H         1.8010205116        4.6924177737       26.3776821906
  H         2.7392126319        5.3497508587       27.6947825733
  C         0.6136301290        5.6701997841       27.8034394414
  S         6.3583096630       -2.5358861682       28.6403537714
  N         5.7311212748       -2.0010991872       30.0156063794
  C         5.3497230434        0.2128300602       31.1468010390
  H         4.8309450519        2.4293912014       31.5925313132
  H         7.3052267577        1.0294628015       19.9701343657
  H         8.0560246597        1.5124184627       18.4934664032
  C         6.3779339593        2.6094661805       19.2153880850
  H        10.3972487719        1.4959044023       19.3823327768
  H         9.7549145936        0.6560072368       20.7474033750
  C        11.1126855371        2.1886487456       21.3549634258
  H         9.7738643745        3.4901561062       17.5596482632
  C         9.8878016858        6.1086820878       16.8035688634
  H        -0.1949451603        5.4658071085       27.1097524660
  H         0.5889876243        6.6598531853       28.1995580573
  C         0.6145853751        4.7052509710       29.0126425965
  C         5.0477309209       -0.4365337319       32.3525746057
  H         6.5538475468        3.2773731122       18.4041167347
  H         6.2062168717        3.1967712794       20.0717537749
  C         5.1813912166        1.7666597233       18.8557757004
  H        10.5955764255        2.3014858295       22.2925422135
  H        11.3325943390        3.1930147228       21.0278072885
  C        12.3532293674        1.3585274585       21.5022344038
  C         9.9351846704        7.5473944876       16.6293660104
  C        10.0387246166        5.2613861421       15.6088748607
  H        -0.3308170037        4.2012107496       29.1563997373
  H         1.3688227813        3.9433333380       29.1235487176
  C         0.7679754004        5.5227409589       30.2544731065
  H         4.7067081393       -1.4654953993       32.2667191274
  C         4.7512918346       -0.0068755214       33.5990889407
  H         4.3247763638        2.3880115911       18.5960070398
  H         4.9105926144        1.2156146790       19.7494767627
  C         5.3031326557        0.6296812282       17.8843695829
  H        12.2834725043        0.6677804108       22.3307130741
  H        12.5278782288        0.7173779484       20.6379413668
  C        13.4426701274        2.3611994547       21.6904340450
  N         9.8112511669        8.5565920632       17.6040400355
  C        10.2069808353        8.0234077979       15.4318811590
  C        10.3572545136        5.8204815855       14.3771976765
  H        10.0089692216        4.1912241335       15.6526581561
  H        -0.1523716804        6.0924050524       30.4378482366
  H         0.9422058575        4.9428205703       31.1276846482
  H         1.5696285329        6.1674119583       30.2705368411
  S         4.5014968169        1.6222700607       34.1786302155
  C         4.6115829232       -1.0447933720       34.6031121350
  H         5.6969162174        1.0514849361       16.9696021278
  H         5.9624332030       -0.1503470853       18.2354028786
  C         3.8586595960        0.0428066083       17.5666762139
  H        13.0649180079        3.0338369106       22.5093187939
  H        13.6430547201        2.9507199812       20.8405167500
  C        14.7100735924        1.6343690400       22.1067871819
  S        10.0296790363        9.9613353462       16.8473543840
  N        10.5241043509        9.3435683175       15.4456213850
  C        10.4632948236        7.2761711125       14.2373495769
  H        10.5345961006        5.1957296451       13.5621638183
  C         4.2705110039        0.8244294807       35.7495000737
  N         4.2153060003       -0.5380374874       35.7846758507
  O         5.0174591741       -2.1548748874       34.4266153649
  H         3.8383439538       -0.2932654584       16.5269593138
  H         3.1385339906        0.8112641812       17.6650042732
  C         3.5104469353       -1.1830758375       18.3650407454
  H        14.3679490852        0.7659451862       22.6562582299
  H        15.2035751443        1.3506296606       21.1435916566
  C        15.5918869071        2.5266407244       23.0053279907
  C        10.7243208761        8.0195656443       13.0340714973
  S         4.0230242262        1.7322729325       37.2667541395
  C         4.2113548107       -1.2058248578       37.0210094158
  H         4.2904726246       -1.9799178832       18.2106901499
  H         3.5958335658       -1.0233619705       19.4729357513
  C         2.0686951704       -1.6425343578       18.1648882599
  H        15.1048204231        2.9156600010       23.8955777855
  H        15.7765355595        3.3941851893       22.4168415241
  C        16.8456577835        1.9159754216       23.5457160587
  H        10.4245745549        9.0443777779       13.0655292094
  C        11.2082031025        7.7331323825       11.8079277186
  H         3.5087414047       -0.7882191551       37.6976956208
  H         3.6253389514       -2.0785003824       36.7823902034
  C         5.6643439172       -1.3823730814       37.4223287222
  H         1.4941536186       -0.7709721390       18.3389609786
  H         1.9123669555       -2.3401542610       19.0014977393
  C         1.8509924632       -2.2365894803       16.7641483115
  H        17.2147947125        2.5414499564       24.3461001395
  H        16.5286174426        0.9135404023       23.8766496361
  C        17.9162750638        1.7900651612       22.4112846600
  S        11.9733371578        6.3025395430       11.3548484954
  C        11.3814860702        8.8496471149       10.8660743060
  H         6.2115516586       -0.5739532123       37.9386835326
  H         5.5907436413       -2.2409962747       38.0551745403
  H         6.2505352170       -1.7416120153       36.5506313816
  H         2.5309988867       -1.9755997270       15.8822161521
  H         0.7703404452       -2.0245346305       16.5635451079
  H         1.9508776584       -3.3165437411       16.8189448688
  H        18.6966435634        1.0486479924       22.6726242958
  H        18.3496892928        2.7780364921       22.0320911438
  H        17.3825554620        1.3545074516       21.6061812376
  C        12.1815083844        7.0433148641        9.7837599363
  N        11.9492476347        8.3739972633        9.7150840331
  O        11.1092162505       10.0642668225       11.0922876595
  S        12.9478181168        6.2945951368        8.3676768613
  C        12.0226180892        9.1580607696        8.4873194579
  H        11.9955778294       10.2439450114        8.6934366978
  H        12.9520814936        8.9822844402        8.0786381242
  C        10.8464363184        8.8372647792        7.5172820570
  H        10.2952123812        7.9441503169        7.9201232486
  H        10.2276167274        9.7382416870        7.3527755108
  H        11.3132502446        8.5737801551        6.5262181491
  H        20.8091705724       11.9901008761        2.8566772733
  C        20.8270830958       10.9065464429        2.7221219565
  H        19.8585172278       10.5282238269        3.0721241286
  C        22.0739142098       10.5243415989        3.4788208481
  C        20.8665299085       10.7865567399        1.1915161759
  C        21.7512507776       10.5575937950        4.9513620016
  H        22.4020228278        9.5507526270        3.2575989377
  H        22.8118776200       11.2997157382        3.2772794896
  H        20.5546111639        9.7593066293        0.8943337197
  H        21.8390304886       10.9898804550        0.8731728276
  H        20.1376377684       11.4809825910        0.6876327774
  C        21.2987000527        9.0935368773        5.3129838749
  H        22.5764256412       10.8303489204        5.5769649078
  H        20.9249658661       11.3021772589        5.1302776706
  C        20.3666504748        9.0057272100        6.5146890637
  H        22.2691709497        8.5405337100        5.4402630303
  H        20.8405327635        8.6848234506        4.4135423669
  C        18.8563453171        9.3151053101        6.1277980313
  H        20.8170556865        9.5433867086        7.3151465841
  H        20.3800829237        7.9804506582        6.8134236412
  C        18.0115938400        9.8078143414        7.3034886962
  H        18.8508732739       10.0539966275        5.2616019300
  H        18.3283854384        8.3619773895        5.8440766395
  C        16.7046407994       10.6377496192        6.9601447433
  H        18.7088274771       10.4607261494        7.9415257392
  H        17.7237406933        8.8961294754        7.8347215488
  C        17.0305751895       11.9870161572        6.3043987942
  C        16.3333641029       11.3458925669        8.2511330383
  C        15.5993704713        9.8712804020        6.2522115543
  C        16.9198005349       13.0988527679        7.0884277741
  C        17.5623932866       12.3670520421        5.0563412921
  C        16.4430490713       12.7506110987        8.3550458376
  C        15.7883860135       10.6401106703        9.3535118407
  H        16.1522093307        9.1707900751        5.6519327113
  H        15.1343739037        9.2760959671        6.8694674356
  C        14.6954394290       10.6904662769        5.4017658738
  S        17.3778393372       14.5852223260        6.2920605642
  C        17.7825996128       13.6891601263        4.8875714819
  H        17.7343182562       11.6605545301        4.3271989118
  C        16.0223787635       13.3364721494        9.4889728053
  H        15.9295861599        9.5365011159        9.4263086276
  C        15.4859566063       11.2264148851       10.5252496588
  H        15.2202020593       11.2682459735        4.6771761859
  H        14.1966363455       11.4013439040        6.0557397481
  C        13.4749299181        9.9558359203        4.9330693463
  C        18.0227210704       14.4141331231        3.5558552576
  C        15.5290948704       12.5704370194       10.6011818742
  H        16.0585912422       14.4132261308        9.6622808877
  C        15.0120390596       10.8157467642       11.7109162084
  H        12.5624925789       10.5538409306        4.9678543745
  H        13.2383770685        9.1436536162        5.5850289736
  C        13.8093256432        9.4434101850        3.4439235297
  C        17.9389458773       15.7766985584        3.3229346333
  C        18.4802829031       13.6622414158        2.3901636894
  C        15.1547245969       13.2935736018       11.8343967706
  C        14.8922902671       11.9626045941       12.5178478130
  S        14.6969036961        9.3479236324       12.4771865004
  H        13.9247096615        8.3608280568        3.5178093949
  H        14.7459385191        9.8375710359        3.0717780495
  C        12.7401268491        9.8185174632        2.3548406670
  N        17.5883205694       16.7562730644        4.2360402136
  C        18.1750312481       16.3151644571        2.0469271628
  C        18.7607704390       14.1751982303        1.1840544090
  H        18.6325932645       12.6097548714        2.5619961341
  C        13.8232714949       14.2124074937       11.7317167757
  C        16.3017865115       14.0228370813       12.4656547237
  C        14.5294850885       11.5135942188       13.8225079592
  C        14.3291722941       10.1944067247       13.9338689588
  H        11.7468227192        9.6100677362        2.7902278559
  H        12.8679922889       10.8845418136        2.1651891063
  C        13.0157640112        8.9586247269        1.0849347195
  S        17.4768546719       18.1959978898        3.5276040473
  N        17.9032589632       17.7302050488        2.0237503780
  C        18.6784763974       15.5681464136        0.9146830928
  H        19.2150615796       13.5237087013        0.4258965527
  H        14.0295067834       15.0123925773       11.1086579927
  H        13.6102267790       14.6290459457       12.6890297624
  C        12.6420451653       13.3231710898       11.2835923893
  H        16.3786377549       15.1414312556       12.1612696921
  H        15.9957156861       14.0822075919       13.4965633039
  C        17.6671805920       13.3370166359       12.4624735656
  H        14.3231215453       12.2742354149       14.5812854549
  C        14.0813970141        9.4604089682       15.2265816848
  H        12.3164316865        8.0397817341        1.0347252937
  H        14.0118957691        8.4971303498        1.1204582481
  C        12.9366780534        9.6787666982       -0.1908746898
  C        18.8033354575       16.2552521022       -0.3819585989
  H        12.7741457732       12.7616637450       10.3199541229
  H        12.4289833967       12.6050382600       12.0917791878
  C        11.3054703582       14.0148172991       11.2014294679
  H        18.1898082273       13.7871317380       11.6168445823
  H        17.4870069977       12.2113596303       12.3068718018
  C        18.3898373733       13.5653311689       13.7905999950
  C        13.8462291733        8.0752837694       15.3617273118
  C        13.9732886752       10.1728038048       16.4816354543
  H        13.0262011589       10.8179201657        0.0551561887
  H        13.6775356995        9.4426474556       -0.8716021879
  C        11.5423763144        9.6452028843       -0.7990600087
  H        18.6953916612       17.2909696096       -0.3447636043
  C        19.1615293277       15.7827781083       -1.6422991846
  H        11.3506747882       14.7474510753       10.3986525149
  H        11.0662061201       14.5738304531       12.1286304951
  C        10.1813292428       12.9917943833       10.8688036748
  H        18.0108066294       14.5260783501       14.1755980203
  H        18.0161872655       12.8250599198       14.4318279344
  C        19.9494178504       13.3938989562       13.6639430672
  N        13.8926301544        7.1366206885       14.2771010685
  C        13.4859919665        7.4299818330       16.5332409587
  C        13.5803710087        9.6028487821       17.6990571541
  H        14.1736524021       11.2199569594       16.5081618126
  H        11.3409436656        8.6910198693       -1.3577210960
  H        11.4828019947       10.4635807202       -1.4984221907
  H        10.7310230884        9.8418806234       -0.0412672353
  S        19.4867827366       14.1402802937       -2.0548871975
  C        19.1960516566       16.7533508475       -2.7722223563
  H        10.5696499932       12.2829558831       10.1317977049
  H         9.7703737083       12.5466745247       11.8311503176
  C         9.0967779836       13.6757603998        9.9778292320
  H        20.4169668051       13.5031469663       12.7074993665
  H        20.2266791382       12.3872761042       13.9243535356
  C        20.7008491173       14.3357102051       14.5637956142
  S        13.8065345431        5.6078240164       14.8724156015
  N        13.2764519926        6.0653949142       16.3264737844
  C        13.2498085544        8.1642401192       17.7063255732
  H        13.5908572567       10.2989909520       18.4943025723
  C        19.7185896628       14.7527501332       -3.6682327730
  N        19.6547239573       16.1138242172       -3.8227940422
  O        19.0066302704       17.9530356949       -2.8009027571
  H         8.7128566189       14.5094588271       10.5521113290
  H         9.3659214626       14.1942147978        9.1150109854
  C         7.9601383070       12.6921474350        9.6152341529
  H        20.0654318093       14.5034211864       15.4487884146
  H        21.7207480046       13.9713633951       15.0068380860
  C        21.2225608640       15.5860749540       13.8394115163
  C        12.9929712320        7.4436701487       18.8470062768
  S        20.1754827563       13.8635004829       -5.0573092123
  C        19.7622536655       16.7562417818       -5.1050259951
  H         8.1992490022       11.9460360408        8.8660193210
  H         7.7601584798       12.1032659810       10.4816393946
  C         6.6982372666       13.5015151153        9.0788108446
  H        20.5795232857       15.9529138672       13.0501854815
  H        22.1568190641       15.2739833251       13.4595897196
  C        21.4301636119       16.7412210132       14.8632323640
  H        13.4858746805        6.4512484633       18.8456425224
  C        12.3803514896        7.7152732823       20.0968810422
  H        20.5431426775       16.3379698988       -5.7718971986
  H        20.2008108597       17.8017125009       -5.0766777184
  C        18.4153750675       16.8213133824       -5.8793669533
  H         6.1936959803       13.0862464153        8.1923569866
  H         7.0156328758       14.4955370129        8.7564343896
  C         5.5599300021       13.6140337528       10.1027522118
  H        21.6839754501       16.3921975424       15.7778785777
  H        22.2450115299       17.3993770792       14.6454916844
  C        20.1300158764       17.5811564391       14.8559075339
  S        11.6317081522        9.1846303076       20.5895154818
  C        12.3027052316        6.5877654779       21.0845656933
  H        18.2782322243       15.8720791165       -6.4054026135
  H        18.4288964091       17.6076859119       -6.6591269201
  H        17.5769114640       17.0220737376       -5.2380067457
  H         5.3980191214       12.6562921027       10.5174327983
  H         6.0502255328       14.3130113621       10.8380944375
  H         4.6448376580       14.0513502493        9.7667300855
  H        20.0856706053       18.3626614276       15.6347649575
  H        19.9592000107       18.0526068991       13.9081789534
  H        19.3163390286       16.8481466503       14.8936048749
  C        11.3887669638        8.4417015913       22.1254193731
  N        11.6415808672        7.0921037075       22.1967995347
  O        12.6977669964        5.4259943398       20.9303881242
  S        10.8046565197        9.3528307170       23.5383935888
  C        11.3489198312        6.1984500505       23.3285649861
  H        11.2546629423        5.1631629766       22.9573648012
  H        10.3463513976        6.3386625479       23.7518418101
  C        12.3649580437        6.3896503906       24.5022241804
  H        12.5170941895        5.4934575499       25.1303447490
  H        12.1351708899        7.1173586825       25.2778441157
  H        13.2841822881        6.7179181127       24.1059938945
