352
 i =    42100, time =    42100.000, E =        24.8897959752
  H        11.8577660680        7.7160168878       31.8940763730
  C        11.6225636139        6.6894671717       31.6423278291
  H        12.1768897156        6.3114669960       30.8910983349
  C        10.2950739108        6.5097276653       30.8912818144
  C        11.7103510406        5.7372087969       32.8754100383
  C        10.3563808425        6.7348163583       29.4246695424
  H         9.9042436589        5.4855651722       31.1148339367
  H         9.5240976606        7.1271208823       31.3803716850
  H        10.8986607209        5.0315312901       32.8927263225
  H        12.6530782624        5.1935989523       32.9354694997
  H        11.5770994976        6.3052960323       33.7601681093
  C        10.8444013668        5.6176419313       28.5444337863
  H        10.9242744807        7.6610743157       29.1431647991
  H         9.3440132248        6.8631980950       29.0107380498
  C        11.0122745148        6.0432373319       27.0892991136
  H        11.7491336174        5.2188549849       28.8571484058
  H        10.1568423721        4.7213914789       28.6981504366
  C         9.9024231158        5.4310399697       26.0855518548
  H        12.0256543234        5.7233830266       26.8073238769
  H        11.0961651106        7.1019746821       26.9003063763
  C         8.6528222506        6.2490031245       25.9521724348
  H        10.3007053164        5.3228736653       25.1227516182
  H         9.6551983302        4.3716435824       26.2517053956
  C         7.4418425221        5.5292349814       25.2680345252
  H         8.4669760835        6.4342658696       26.9365947698
  H         8.7877615005        7.1954467131       25.3641698812
  C         7.1390975280        4.0876309296       25.9315536487
  C         7.7931418210        4.7408346439       23.9896269728
  C         6.1828968090        6.4430363789       25.0886645702
  C         7.2648478644        3.0071014081       25.0584277950
  C         6.7350820056        3.6633429673       27.1996717230
  C         7.7418120414        3.4360621040       23.8254660504
  C         8.2931928431        5.4327226492       22.8678595030
  H         6.3764120271        7.2497388485       24.4055551803
  H         6.0405823443        6.9262708119       26.0222745923
  C         5.0090106627        5.6734046602       24.5352138400
  S         6.7551985492        1.5906688290       25.7337088350
  C         6.5304133548        2.3272031162       27.2453530471
  H         6.5228748365        4.5185265052       27.8869614858
  C         8.0043449395        2.8513419390       22.6253942034
  H         8.3732459658        6.4909684109       22.9309346611
  C         8.6714981848        4.8049909594       21.7115596093
  H         5.4752117109        5.5355093097       23.5231922827
  H         4.7902996461        4.7105800035       24.9223599333
  C         3.6979269289        6.5070558563       24.4479657676
  C         6.0160484944        1.6462757506       28.4296780543
  C         8.5446188413        3.4893671285       21.5108900658
  H         7.8386429237        1.8166761685       22.6079177065
  C         9.0446932398        5.2319819171       20.4554863694
  H         2.9033584004        5.9934837920       23.9672094926
  H         3.8054035863        7.4062328331       23.7518280914
  C         3.1213362091        6.8556026826       25.7371492773
  C         5.9346427937        0.2238828707       28.6350448532
  C         5.5972367645        2.5151604256       29.5926797759
  C         8.9514795162        2.8145493185       20.2517524815
  C         9.2220106952        4.1785569917       19.6068433104
  S         9.2022677854        6.7822033711       19.7715064807
  H         2.3567276704        7.6731178144       25.7990569832
  H         4.0117486614        7.2226069883       26.3218411516
  C         2.3546844058        5.6379500427       26.2966605917
  N         6.3304856085       -0.7509588623       27.7181939463
  C         5.6220360475       -0.3136304035       29.9018349838
  C         5.1016314765        1.9557915626       30.7667562434
  H         5.6427201285        3.5834628026       29.5653185058
  C         7.8350865298        1.9363756873       19.5962474952
  C        10.2033610776        1.9981261084       20.5208391932
  C         9.5924894654        4.7144406130       18.3007918100
  C         9.5798486895        6.0704203163       18.2386957345
  H         1.5189981386        5.3778363495       25.7174751663
  H         2.9594350782        4.7933503410       26.3850743011
  C         1.8190824180        5.8081252817       27.7233005612
  S         6.2426521774       -2.1832996979       28.4705857001
  N         5.7390611320       -1.6726923174       29.9285458510
  C         5.2667048294        0.4980943611       30.9894765480
  H         4.8606721557        2.6432684803       31.5849706636
  H         7.6193091210        1.0379880463       20.1708938005
  H         8.3034110427        1.6326913563       18.6598997985
  C         6.4791425051        2.5475068408       19.4189153459
  H        10.4063468234        1.4231843998       19.6360503206
  H        10.0010334486        1.1175283071       21.1978896483
  C        11.4614796985        2.7830466616       20.9582590617
  H         9.6519043912        3.9214686122       17.5355606954
  C         9.9408175470        6.8118926605       16.9814353440
  H         1.1107935834        5.0207091772       28.0163760923
  H         1.2746956733        6.7278978798       27.7479485278
  C         2.9383576644        5.7456163225       28.8636025626
  C         5.0596635793       -0.1887271473       32.2241780615
  H         6.6037174749        3.4419784481       18.7940522903
  H         6.0610133931        2.8150151079       20.3870611675
  C         5.4364574449        1.5878978468       18.8193451207
  H        11.1671168581        3.4577545045       21.7836913950
  H        11.7455783342        3.5338834027       20.1771294228
  C        12.6802919555        1.8936120266       21.2746235471
  C        10.0142119680        8.1532359977       16.7688337047
  C        10.1096517121        6.0752603860       15.6766389872
  H         3.4741608423        4.7668881589       28.9474335597
  H         3.6985940273        6.5117012814       28.5444761615
  C         2.5864163992        6.2184035458       30.2224860173
  H         5.0020490175       -1.2408212987       32.1441151234
  C         4.7610021128        0.1301733879       33.5044592278
  H         5.0549947658        1.1588172868       19.7576665138
  H         5.9768399608        0.8607941075       18.1980690608
  C         4.3157607386        2.3513654270       18.1662229145
  H        12.6208602285        1.5122343883       22.2455492824
  H        12.5883110003        1.0654773225       20.5614575193
  C        14.0395896592        2.5573982328       20.9802266053
  N         9.7411249705        9.0392840520       17.7981323876
  C        10.4389237006        8.8335319247       15.6461839354
  C        10.5105747169        6.6609209862       14.5182259803
  H        10.1513425178        4.9545087687       15.6794817888
  H         2.2134313956        5.2945470777       30.6706618692
  H         3.3818159272        6.7236757562       30.8054507413
  H         1.7449427558        6.9401292733       30.2515494516
  S         4.4643884413        1.7375006033       34.1423344734
  C         4.7445578351       -1.0026067475       34.4803014110
  H         4.0117886889        3.0586595695       18.9037673934
  H         4.5491219227        2.9806523495       17.3299417532
  C         3.0874809640        1.4343006890       18.0496272952
  H        14.0067202197        3.2176938735       20.1106454885
  H        14.8119305395        1.8206910524       20.6843765081
  C        14.5605322288        3.3263981353       22.1298826439
  S         9.9331747570       10.5768915173       17.2098388564
  N        10.5202598477       10.2357882193       15.7804896483
  C        10.6727031880        8.1350717076       14.4166947249
  H        10.5859849048        5.9682428628       13.6457760503
  C         4.3278554646        0.9439911250       35.6911555137
  N         4.5283969583       -0.4164828601       35.6727911584
  O         4.9254883931       -2.1997578091       34.2436174468
  H         2.2105012087        2.0724178611       17.8573698852
  H         2.8800553073        1.0453794488       19.0616844507
  C         3.2426628035        0.2879396137       17.0067431554
  H        15.2470132005        4.1366017455       21.8745482035
  H        13.6875403454        3.7305627445       22.6867310785
  C        15.2208973838        2.3744596155       23.1419420797
  C        11.0794160283        8.8951094541       13.2706432159
  S         4.2391071920        1.7611155745       37.2841936841
  C         4.6301367189       -1.1540145899       36.8635865920
  H         2.5118046729        0.3667740901       16.1830432631
  H         4.2108710009        0.5457649446       16.5840804943
  C         3.1519086510       -1.0822472158       17.6308026420
  H        15.1799154901        1.3870367030       22.8719759199
  H        14.6151607500        2.4120159087       23.9470316680
  C        16.6531182240        2.6383678699       23.4827872772
  H        11.1163958948        9.9627531065       13.3405867222
  C        11.6220538206        8.4766962328       12.0841539276
  H         3.9854441976       -0.8228160398       37.7448479602
  H         4.1652586500       -2.1160503462       36.7078016031
  C         6.1443664142       -1.2591151857       37.2282962675
  H         3.3545729445       -0.9802392178       18.6960322257
  H         3.8864779122       -1.7566349273       17.2407918170
  C         1.8100593266       -1.6582207548       17.3750037873
  H        16.7513791452        3.6274715154       23.7655624297
  H        17.0198415078        1.9914085842       24.2807993439
  C        17.6010015870        2.4035314847       22.2471397081
  S        11.9779543364        6.8538013534       11.5363277406
  C        11.7800765806        9.5097293323       11.0073745266
  H         6.5042994714       -2.3366713411       37.2863304881
  H         6.7571751936       -0.7548221820       36.4598487221
  H         6.4364646137       -0.7368841020       38.1387352854
  H         1.7120828734       -2.7826457250       17.4398347440
  H         1.4802787747       -1.4878956438       16.3588678757
  H         1.1129513595       -1.1821706206       18.0435648800
  H        18.6583295606        2.2827902094       22.5509443010
  H        17.7514763574        3.1192902284       21.4050205663
  H        17.3113579814        1.4785091393       21.8292148516
  C        12.4839391634        7.5901067563        9.9588173125
  N        12.3431267525        8.9478735727        9.9043983117
  O        11.4710793303       10.7201001231       11.0850528396
  S        13.0085748475        6.6302426784        8.5223623283
  C        12.4730269695        9.7007073172        8.7127457429
  H        12.8929878091       10.6450811623        8.8384655208
  H        13.2644878489        9.1659216553        8.1558992347
  C        11.1753555780        9.6123089578        7.8835651223
  H        11.1032537141       10.6283132074        7.5487866568
  H        11.0996348818        8.8640948359        7.1009269586
  H        10.2931188971        9.3735360367        8.5117450661
  H        20.9170035961       10.9548985038        3.2551099214
  C        21.8149678040       10.3693176392        3.3000243252
  H        21.5087923049        9.3313432459        3.3595133787
  C        22.6340404795       10.5918586726        4.6231156741
  C        22.5680532757       10.5546005610        1.9765859353
  C        21.7771788582       10.8917379487        5.8369006856
  H        23.3577607439        9.7319187748        4.7943645285
  H        23.3172613142       11.5001920401        4.5463206152
  H        23.1980360569       11.4126883644        1.9268017452
  H        21.8161218190       10.6578985236        1.2126250159
  H        23.1506138314        9.6938649697        1.7631539752
  C        21.1901133074        9.6425124281        6.3329209646
  H        22.4836953885       11.2124198602        6.6036929229
  H        21.0872055683       11.7021106476        5.7278779151
  C        20.4643540997        9.8587613795        7.6564926296
  H        21.9203661270        8.7756532453        6.3911553477
  H        20.5501872313        9.1531250993        5.6191934553
  C        19.1464054104       10.5468978750        7.6094447002
  H        21.0828828206       10.2781369629        8.4756293528
  H        20.2807699020        8.8064095130        7.9631392482
  C        17.9131008126        9.7797502842        7.0220491200
  H        18.8345479281       10.9955682633        8.5608705720
  H        19.2911228703       11.4899739926        6.9829003216
  C        16.6964462274       10.6992254472        6.6823577149
  H        17.5904369117        8.9540999884        7.6827775310
  H        18.1268464684        9.2618527520        6.0999216463
  C        17.0964176475       12.0212362172        5.9612772766
  C        16.3468057342       11.5313289502        7.8540197158
  C        15.4969064117        9.9884728935        5.9525485376
  C        16.9334563986       13.1812309207        6.6825170158
  C        17.5261995336       12.3660452442        4.6338978398
  C        16.4962808059       12.8435412933        7.9570526464
  C        15.8522031032       10.8915929667        9.0124918457
  H        15.7122631302        9.4108040565        5.0625092300
  H        15.1356718376        9.2607644324        6.6583260505
  C        14.3030111670       10.9369475776        5.5629332092
  S        17.3360415469       14.6729005911        5.8123722589
  C        17.6620815700       13.6919853333        4.3951018418
  H        17.6674902968       11.5356305770        3.9105321906
  C        16.2163974239       13.4559174594        9.1846580039
  H        15.6921725550        9.8477455860        8.9360840741
  C        15.5637296974       11.4579953865       10.1653361664
  H        14.7080620495       11.7467081396        5.0072686960
  H        13.8981949018       11.2892775211        6.5325700871
  C        13.1820072801       10.4470675636        4.7181199577
  C        18.0610056357       14.2990454213        3.0982449692
  C        15.7085553679       12.7834602179       10.3114601861
  H        16.4371540816       14.5277669599        9.1983851109
  C        15.1040735639       11.0449301104       11.3716318566
  H        12.3014401801       11.0917336050        4.6729272623
  H        12.8048203054        9.4521786406        5.1971763600
  C        13.6567354101       10.0568096750        3.3507642444
  C        18.1145343387       15.6656399214        2.7549838576
  C        18.4432766392       13.3241670891        1.9708620496
  C        15.3014705247       13.4830570599       11.5773398071
  C        14.9197849360       12.1427457685       12.2173515396
  S        14.8086984865        9.5406815922       12.1191761153
  H        13.7814846766        8.9547095278        3.3138082984
  H        14.5504040740       10.5916126569        3.1125573424
  C        12.6517197943       10.3390627121        2.3049306520
  N        17.7932765323       16.7240276501        3.6557545829
  C        18.3961505790       16.1591027992        1.5113134201
  C        18.8533586770       13.8339512861        0.7338537414
  H        18.4650923686       12.2662876150        2.0654992311
  C        13.9870660982       14.3354627949       11.3196460939
  C        16.4607895949       14.2157958395       12.3540803635
  C        14.4894335300       11.6984935591       13.4814089770
  C        14.4355182303       10.3558232558       13.6365399529
  H        11.6938738683       10.0968093265        2.6942342279
  H        12.7825973619       11.3907555566        2.1179866819
  C        12.8853795183        9.6000201376        0.9873007666
  S        17.8740386654       18.1835819384        2.8626435152
  N        18.3579611950       17.5466825165        1.4413725940
  C        18.7168143506       15.3322104959        0.4290924729
  H        18.8411446967       13.1291995390       -0.0590509203
  H        14.2003185663       15.1142865670       10.5865532906
  H        13.6847204765       14.9273485707       12.2073494828
  C        12.7815793818       13.4902287233       10.8059473952
  H        17.0442801869       14.8445466646       11.6665588168
  H        15.8844672399       14.8659697695       12.9901027386
  C        17.4158381396       13.1906769523       13.0470995294
  H        14.3757320985       12.4200951552       14.2532710953
  C        14.0484564936        9.6812536555       14.8942676446
  H        12.2643756794        8.6837844211        1.0543923426
  H        13.9519601296        9.3826676610        0.9597988633
  C        12.4459351787       10.5117636562       -0.2115038642
  C        18.9281813739       15.9094279047       -0.9121793028
  H        13.0414533813       12.9214787743        9.9600645850
  H        12.4683157421       12.7690411607       11.5180697628
  C        11.5609391478       14.3508052262       10.6247228908
  H        17.7577909842       12.3786940140       12.4341566852
  H        17.0204988288       12.6412096338       13.9200964706
  C        18.7254625281       13.9548822609       13.4663997130
  C        13.9960090188        8.2731708926       15.0880595357
  C        13.7399148195       10.5100024650       16.0469801032
  H        11.5112436057       10.9883016497        0.0648678900
  H        13.0679827243       11.3266127121       -0.2792796170
  C        12.3606257778        9.7780602166       -1.5276416207
  H        18.5282202838       16.9288965711       -0.9472795243
  C        19.3244112398       15.4030654034       -2.1146355273
  H        11.7704784196       15.1235023378        9.8728526105
  H        11.3489282176       14.9701325473       11.5257247188
  C        10.3650099299       13.4796433351       10.2562950091
  H        19.5401386066       13.7432961155       12.6750028042
  H        18.5053772648       15.0067045874       13.5171642212
  C        19.3175333083       13.5218543647       14.8336427534
  N        14.3103313299        7.2964887153       14.1113120012
  C        13.5453861818        7.7239120303       16.3123542346
  C        13.3719492810       10.0104059657       17.3094407315
  H        13.7980388358       11.5479705032       15.9955877527
  H        13.2544005844        9.1574398208       -1.8228716582
  H        12.0963843995       10.3999980064       -2.3386718829
  H        11.6204507457        9.0089791966       -1.4180798182
  S        19.9069320211       13.8320257725       -2.4548940435
  C        19.2394896830       16.2636524299       -3.3616814620
  H        10.7011529716       12.8616482774        9.3694623278
  H         9.9870322016       12.8271993865       11.1048555140
  C         9.1773485190       14.2156335195        9.7206367936
  H        19.2731438620       12.4411158690       14.8950295183
  H        18.5996659353       13.6762394792       15.6542655879
  C        20.7632734207       14.1964915323       15.1093894003
  S        14.2337119992        5.8612906860       14.8328143706
  N        13.5318832789        6.3596574193       16.2304020998
  C        13.2870723676        8.5230799628       17.4722419301
  H        13.1307160635       10.7596824386       18.0451880537
  C        19.9728290321       14.3132253279       -4.1529170355
  N        19.6947087881       15.6360502087       -4.3932432829
  O        18.7123252238       17.3889023243       -3.2641818192
  H         8.7728332545       14.7793192564       10.5333365231
  H         9.5506404655       14.8965684798        8.9194739117
  C         8.0930255123       13.3179173446        9.1027376101
  H        21.0679876470       13.9683625422       16.1415748572
  H        21.5530548728       13.8024732986       14.4715530657
  C        20.8166741979       15.7261591451       14.9989920686
  C        13.0711935864        7.7869492910       18.6840289048
  S        20.2641586731       13.2100364145       -5.5199835970
  C        19.7970082739       16.2721036070       -5.7312033697
  H         8.5309063993       12.5260245159        8.4349962171
  H         7.6468711928       12.6768636189        9.8871342394
  C         7.0264384796       14.0952239616        8.3309659989
  H        21.7098686237       16.0890933908       15.6276786294
  H        20.0291636589       16.2531605322       15.5293247161
  C        21.1572915801       16.1582703925       13.5598305058
  H        13.2342017884        6.7414966006       18.5294445788
  C        12.5152000843        8.2534253087       19.8555038177
  H        20.2358324107       15.4921046129       -6.3816550838
  H        20.5039797922       17.0853043772       -5.8420372455
  C        18.3705296718       16.5612430913       -6.3352795833
  H         6.9153378843       13.6524413016        7.3806374172
  H         7.3859282551       15.0398213034        7.9295915755
  C         5.7830049078       14.3497446918        9.1281313251
  H        21.9180251049       15.6646151574       13.0558602867
  H        20.2620789270       15.9877418249       12.8955573467
  C        21.3428753595       17.6773985705       13.4340738829
  S        11.9049653834        9.8271351179       20.2375886057
  C        12.3728276734        7.2192632425       20.9223647026
  H        18.4184073345       16.3237743196       -7.3900060717
  H        18.1419929748       17.6129374630       -6.1466558462
  H        17.6429870546       15.8840150265       -5.9142965473
  H         6.0323496561       14.9902321141        9.9476269922
  H         5.0002234709       14.7538819664        8.5272063327
  H         5.3282091419       13.4902370830        9.6274779131
  H        21.1527855680       17.9001469854       12.4179274600
  H        20.7048014970       18.2417170270       14.1162744499
  H        22.4238425212       17.9937619931       13.4892350194
  C        11.4296708134        9.1248067482       21.8632379850
  N        11.7347421807        7.7829016751       21.9597582177
  O        12.6464623945        6.0462085904       20.7754627057
  S        11.0445602718       10.1574801840       23.2770464464
  C        11.5036679358        7.0275685087       23.0920614484
  H        11.3186137562        5.9667421657       22.7704183143
  H        10.7062207199        7.2935675537       23.7297927185
  C        12.7528792927        7.0415758279       24.0047223701
  H        12.7274640423        7.8349606602       24.7004023145
  H        13.6293012648        7.0839472344       23.3282666829
  H        12.9430165282        6.1360526815       24.5643107151
