352
 i =    11200, time =    11200.000, E =        25.0703896334
  H        11.8320736743        7.0930912949       32.1663691615
  C        11.8099867896        6.0485526390       32.1532976958
  H        12.6884710636        5.6536596043       31.6265792335
  C        10.5422754812        5.7394723633       31.3972930086
  C        11.9074502912        5.2212455487       33.4569135964
  C        10.7982905337        6.1754326752       29.9040432755
  H        10.3905528779        4.6714802765       31.5878206403
  H         9.8067930406        6.2882789560       31.8996936360
  H        11.9980000272        5.9217143358       34.3212285517
  H        11.1057445103        4.5437504612       33.7751986885
  H        12.6767043551        4.4594979419       33.4206420623
  C        11.1429642529        5.0024168130       28.9643503755
  H        11.6207257554        6.8712409702       29.8457850546
  H         9.9741478074        6.8106603352       29.5581765403
  C        11.1625137468        5.4558349012       27.4769448171
  H        12.0997586628        4.5647749447       29.1310876728
  H        10.3662632310        4.2445229687       29.1622780384
  C         9.9770720146        4.9342459550       26.6564911587
  H        11.8535624546        4.8533484735       26.9591194872
  H        11.4210371951        6.4914844277       27.2775080874
  C         8.7276161941        5.8668626835       26.5472177038
  H        10.3354692746        4.7551999960       25.6334567186
  H         9.5991102908        3.9576696241       27.0824265554
  C         7.6464770666        5.1748822518       25.6692091485
  H         8.4199597153        6.1632530061       27.5386163449
  H         9.0048083273        6.7964151206       26.0503879451
  C         7.2045242125        3.8238957185       26.1841795401
  C         8.0597252655        4.5203754846       24.3544909614
  C         6.4513763214        6.0934647926       25.4583706426
  C         7.4182857280        2.7266582897       25.4167070707
  C         6.6730683184        3.5086222748       27.4697656067
  C         8.0624788190        3.1200668217       24.2426137620
  C         8.4053095474        5.1751767388       23.1502278214
  H         6.8791526007        6.9273012636       25.0189595020
  H         6.1345233672        6.2659861773       26.4854560679
  C         5.3617884527        5.4318075697       24.6379988351
  S         6.9415177988        1.2336759659       26.1897999761
  C         6.4767694723        2.1761833661       27.5878044151
  H         6.6095696779        4.1890167003       28.3358172088
  C         8.4135516217        2.5143911337       23.1048366175
  H         8.3683527750        6.2030135130       23.2052756836
  C         8.6206591894        4.5451299625       21.9719495811
  H         5.6903817919        5.0740189538       23.6504867530
  H         5.0384069469        4.5626327125       25.1172550439
  C         4.1979924957        6.3922967961       24.4589159795
  C         5.8753507224        1.5794905605       28.8357976969
  C         8.6321465183        3.2165116352       21.9013883606
  H         8.2476539350        1.4147331946       23.0515456573
  C         9.0484406529        4.9677117734       20.7349732924
  H         3.6573916232        6.0358610689       23.6379100164
  H         4.5933846307        7.3659115031       24.1634667646
  C         3.3135971459        6.4942831281       25.7088293906
  C         5.8944653781        0.1659467036       29.1228214520
  C         5.2152810702        2.4333746281       29.8788130051
  C         9.0426522678        2.5153288550       20.6704635664
  C         9.2984432255        3.8466410773       19.9434761925
  S         9.3980210917        6.5015572679       19.9561414761
  H         2.7074457883        7.3269521378       25.5661395660
  H         4.0734084636        6.8211662177       26.4324972930
  C         2.4689164721        5.2480191175       26.0109110094
  N         6.3768246159       -0.9014437810       28.3518087581
  C         5.5351903198       -0.3118359679       30.4325392445
  C         4.8696316505        1.9092009181       31.0867745591
  H         5.0781147343        3.4970992172       29.7402337293
  C         7.9145455021        1.6292427798       19.9927726219
  C        10.3887075060        1.6769600056       20.7827742424
  C         9.7204997435        4.2164239452       18.6575161716
  C         9.7293735508        5.5689527256       18.4910982917
  H         1.8236343930        5.3191947859       25.2094408969
  H         3.1344723442        4.3779914609       26.0294030465
  C         1.5588900724        5.3551508435       27.2641530927
  S         6.2874103975       -2.3193077737       29.2090084118
  N         5.6662838074       -1.7183958353       30.5892926717
  C         5.0656187001        0.5233291061       31.4642082546
  H         4.3618458959        2.4444493633       31.8532208804
  H         7.5029142133        0.9796637960       20.7430947786
  H         8.3228588805        0.9631451090       19.2145117852
  C         6.7895726838        2.4608198558       19.3964418040
  H        10.7084335913        1.3769146556       19.7605983944
  H        10.1783378936        0.8353987442       21.3726488587
  C        11.5449942348        2.5332919856       21.3951447327
  H         9.9343289700        3.3409981777       17.9781854943
  C        10.0422108079        6.3996604379       17.2283881832
  H         0.9391076844        4.5028487889       27.3311365442
  H         0.8711120186        6.0944258181       27.2004285194
  C         2.3835033750        5.3804499551       28.6315070585
  C         4.7982953991       -0.0442386598       32.7509592708
  H         7.1139932303        2.9383754738       18.4343286031
  H         6.4849047725        3.2758235331       20.0430001944
  C         5.5992441517        1.6271535719       18.8188557702
  H        11.3454431674        2.7785721734       22.4331752676
  H        11.6620641732        3.3828611572       20.8472982617
  C        12.9241865548        1.7653637877       21.4379012460
  C        10.0615581715        7.8346369943       17.0826279727
  C        10.1332648452        5.6649273336       15.9226449222
  H         2.9887059665        4.5347834297       28.6519348526
  H         3.0655459473        6.3115415597       28.4739758874
  C         1.6113822598        5.5051770198       29.8994846640
  H         4.7951360982       -1.1274204631       32.8009483129
  C         4.5246138129        0.4644553538       34.0292336676
  H         5.0836468509        1.2301721115       19.6581933494
  H         6.0701182357        0.7785949698       18.2620130591
  C         4.7481439114        2.3394517318       17.7445070260
  H        13.0390254362        1.1175954468       22.3733173827
  H        12.8941510807        1.2027598635       20.5182983865
  C        14.1458792545        2.7319853062       21.4163285315
  N         9.7512025783        8.7858747843       18.0851732728
  C        10.4405925487        8.4317650602       15.9058801514
  C        10.4757026219        6.3400244132       14.7374388129
  H        10.0115496119        4.5888023031       15.8895387950
  H         1.6553374955        6.4881828757       30.2529744184
  H         0.6148639008        5.1815881578       29.7924028500
  H         2.0802974659        5.0157084879       30.6932662614
  S         4.2028384701        2.1007962818       34.4588014648
  C         4.5498754518       -0.4762398726       35.1912260459
  H         4.7970792262        3.4719543856       17.8832425186
  H         5.1179297565        2.1854592558       16.7235375731
  C         3.3003080166        1.6683001849       17.7946625590
  H        14.0194217147        3.5572373561       20.7132311815
  H        14.9657927456        2.2295305668       20.8555593219
  C        14.6159358814        3.1603262089       22.8413020499
  S         9.9109836967       10.3057815058       17.4670545538
  N        10.4051439234        9.8415049082       16.0088009228
  C        10.7577507396        7.8006207165       14.7371023705
  H        10.6205463954        5.6596099332       13.8580271053
  C         4.1265450503        1.5374366328       36.1511108985
  N         4.2597036796        0.2058786525       36.3393336150
  O         4.7716627725       -1.6690044258       35.1084841622
  H         2.7365511956        1.9944077838       16.9467146741
  H         2.8008513328        2.1085884805       18.6564104612
  C         3.2459870075        0.1304997937       17.7345917344
  H        15.1647180723        4.0947060161       22.7803901742
  H        13.7678300732        3.3524731360       23.5211712860
  C        15.6079923800        2.1035993440       23.4668425232
  C        11.1795260491        8.5530606619       13.6171378264
  S         3.8507008539        2.6240379495       37.4188186672
  C         4.2005623443       -0.4265783323       37.6284777787
  H         2.6057878192       -0.3122445207       16.8856595157
  H         4.2182933143       -0.3874257340       17.8850660595
  C         2.7236361734       -0.4454437251       19.0682561071
  H        15.2185406720        1.0514592736       23.5019522349
  H        15.7774624215        2.4233829741       24.4921796923
  C        17.0000199743        2.1215318972       22.7958573718
  H        11.1386023586        9.6731559094       13.7734297981
  C        11.6981727006        8.2052811409       12.3934905636
  H         3.4858639363       -0.0294418635       38.3884578566
  H         3.6753805217       -1.3253543670       37.4399869348
  C         5.6195639193       -0.6521810232       38.0856752281
  H         3.1416385200        0.2330011312       19.8709927631
  H         3.2374016212       -1.4218297050       19.1889427195
  C         1.2496342301       -0.4952761962       19.1403648906
  H        17.0810709282        3.1132731621       22.3005248367
  H        17.7327198470        2.1255714361       23.6134404850
  C        17.4125365747        1.1361591384       21.7548091576
  S        12.1544984365        6.6277236493       12.0050392118
  C        11.9405147379        9.2348639246       11.3105078116
  H         6.3874545863       -0.0895864545       37.5339347512
  H         5.5791719440       -0.4317441290       39.1212263436
  H         5.8560739490       -1.7420265885       38.0951475847
  H         0.8347910115       -0.5369439069       20.1264336621
  H         0.7126959506       -1.2806543318       18.5874926190
  H         0.8794937016        0.5017550505       18.7997894735
  H        18.4861427967        1.0444180998       21.8099797319
  H        17.1354214075        1.5350297074       20.7927230078
  H        17.0998765805        0.0514019108       21.9063015440
  C        12.5993310983        7.2870205296       10.4283206568
  N        12.4706139023        8.6403314347       10.2161336402
  O        11.7101725355       10.4097057574       11.4372414335
  S        13.1405917845        6.2064211581        9.0989767094
  C        12.5755125852        9.2158131706        8.9107199698
  H        12.9224229831       10.1662824245        9.0086696124
  H        13.2554960892        8.7072907738        8.1296503092
  C        11.1105611848        9.3190285615        8.2785882087
  H        11.1097243573        9.4446753983        7.1529738036
  H        10.4925116285        8.3955129580        8.4816302832
  H        10.6268951385       10.1834339948        8.7094499504
  H        20.1528667003       10.4691415941        3.3048344024
  C        21.1202942711       10.0014732902        3.1909296656
  H        20.9733209030        8.9813668017        3.4028496663
  C        22.0730625478       10.4604926636        4.2634792153
  C        21.6261828304       10.1621994019        1.7766378864
  C        21.3901981497       10.9740517852        5.5305063995
  H        22.6799445457        9.5849309594        4.5078282247
  H        22.7542331354       11.2559053692        3.8838977396
  H        21.4585204284       11.1721939921        1.5599097831
  H        20.9656211083        9.5159653118        1.1204128724
  H        22.6768675935       10.0035951220        1.6357889975
  C        20.9597366700        9.6539790804        6.3051192323
  H        22.0651487187       11.4827931518        6.2234833910
  H        20.5559101253       11.5248299952        5.2482692883
  C        20.2881728908        9.8229354957        7.6578289345
  H        21.6897903461        8.8443749133        6.4019373828
  H        20.1599438261        9.2199125409        5.7479700681
  C        19.0519800983       10.7722411770        7.6990701737
  H        21.1143320503       10.2227520323        8.2463314212
  H        20.0396658148        8.7837179597        7.9851804472
  C        17.8958657653       10.1404028981        6.8570910910
  H        18.8140634819       11.0784621591        8.7201670435
  H        19.3614637560       11.5613869638        7.0302507176
  C        16.6064464488       10.9052803207        6.8991481719
  H        17.7175150477        9.1697424733        7.2836402626
  H        18.2314667099        9.9510859325        5.7689595017
  C        16.7390689006       12.2169371384        6.1569430481
  C        16.2110867553       11.6366430533        8.1605278130
  C        15.5209009799       10.0493365507        6.2128083381
  C        16.6965471479       13.2703064235        7.0126928973
  C        17.0538158192       12.5972896146        4.8255120784
  C        16.2070049431       12.9269522917        8.2871583504
  C        15.8259277717       10.9063578712        9.2649599150
  H        15.8613300899        9.7803271236        5.2381500273
  H        15.2380358973        9.2149691545        6.8307322893
  C        14.1667968403       10.7487546129        6.0270240663
  S        17.0739918608       14.8045596260        6.2791174963
  C        17.1825066538       13.9243190470        4.7551128869
  H        17.1771760253       11.9271518542        4.0317572047
  C        15.8741707616       13.4945064177        9.4871150053
  H        15.8013729463        9.8308232453        9.1750481699
  C        15.4872520797       11.5135725255       10.4875515737
  H        14.2466986087       11.8553302337        5.8194773713
  H        13.6979839868       10.8175024145        6.9437274084
  C        13.2117533223       10.2027193346        4.9961886282
  C        17.6914259777       14.6371790903        3.5411628159
  C        15.5197027736       12.8265839715       10.6680779841
  H        15.9549148991       14.5921528669        9.4620248404
  C        15.0851651996       11.0905480359       11.7139258108
  H        12.1759056271       10.3484547305        5.2776081198
  H        13.1688636538        9.1661389823        4.8164672521
  C        13.2968514254       10.8589106345        3.5863256118
  C        17.7259044182       16.0207066233        3.3585182000
  C        18.2227625962       13.7487281225        2.4887153845
  C        15.0874368694       13.4893950816       11.9183511677
  C        14.8393614597       12.1310356856       12.5981042592
  S        14.9805980939        9.5613428625       12.5355254014
  H        14.3288235108       10.9189410109        3.2094542749
  H        13.0162121809       11.8999970069        3.8262837373
  C        12.3485994744       10.2785821331        2.5620115596
  N        17.3786736283       17.0108314043        4.3436066855
  C        18.1773037919       16.5057997701        2.1540532939
  C        18.6066516014       14.2897390623        1.2729298577
  H        18.3136217152       12.6955002162        2.4845776107
  C        13.7779093213       14.2447953277       11.7644497128
  C        16.2758325892       14.2191889157       12.5524924786
  C        14.4186602634       11.7155501769       13.8457065229
  C        14.4251972108       10.3574887591       14.0053766742
  H        11.6615769912        9.5120610384        2.9739008643
  H        11.6168767241       11.0764430138        2.3947615739
  C        13.0303887085        9.7990257162        1.2732171141
  S        17.5048996890       18.4229785437        3.6491015504
  N        18.0434999650       17.9228776766        2.1666051058
  C        18.5069620669       15.7430476448        1.0148587677
  H        18.9166922550       13.5888827836        0.5335499964
  H        13.9486491456       14.9943293563       10.9862549326
  H        13.5313753718       14.6626787913       12.7409346645
  C        12.5780078991       13.4394421946       11.2522081872
  H        16.5460532155       15.1390607465       11.9984277727
  H        15.7952382297       14.6283632233       13.5046257249
  C        17.5313949610       13.4133617996       12.8577072872
  H        13.9706046816       12.4729601230       14.5035540911
  C        14.0938310146        9.6717502118       15.3368116767
  H        13.2651095898        8.7191589072        1.3848905042
  H        13.9769193365       10.3628279628        1.1583357550
  C        12.0504406002        9.8442295373        0.0171532207
  C        18.7513473869       16.3822585168       -0.1826676944
  H        12.8036599470       12.9650171538       10.2812887709
  H        12.3532107404       12.6336971997       11.9369881242
  C        11.3338891151       14.2570941467       11.1565102919
  H        17.8539823507       12.8542852796       11.9734127363
  H        17.3482283830       12.6829314145       13.6530739615
  C        18.6370566410       14.3513974925       13.3362454290
  C        14.0348198219        8.2851693936       15.5582194876
  C        13.8412373285       10.4724885965       16.5789631303
  H        11.9897673870        8.7840200856       -0.3799562012
  H        11.0488354882       10.2165345149        0.0913641678
  C        12.7552906317       10.7073027223       -1.0208978973
  H        18.3851140203       17.4190705384       -0.2005476047
  C        19.0995479771       15.9423610179       -1.4155402764
  H        11.6022987146       15.1195210142       10.5133360957
  H        11.1762203435       14.5663260698       12.1796385094
  C        10.1397789487       13.4223796127       10.5678635770
  H        18.8861058299       15.2012177292       12.7415855822
  H        18.3644330973       14.7460957874       14.2920218813
  C        19.8755806342       13.5174569881       13.7294516170
  N        14.2567501166        7.3260061043       14.5565269511
  C        13.6388415069        7.6903684756       16.7291442639
  C        13.6533040331        9.8681458880       17.7984320699
  H        13.9232052839       11.6050434585       16.6188806931
  H        12.0064078821       11.0064657025       -1.8311775022
  H        13.5867548823       10.1416572847       -1.4679136834
  H        13.1611608694       11.6014642073       -0.5040031501
  S        19.4716210893       14.3213864068       -1.8883878119
  C        19.1356006879       16.9697389748       -2.4770779758
  H        10.5504205170       12.6497357724        9.9387232822
  H         9.5627338874       12.9234907642       11.3608537731
  C         9.2701423222       14.4138779828        9.7650494488
  H        20.1061657391       12.6827779315       13.0349277534
  H        19.6223423692       13.0564354822       14.7006552527
  C        21.1073088297       14.4664790546       13.9954318824
  S        13.9042016378        5.8290329360       15.1455208159
  N        13.4380732505        6.2940679752       16.6379759550
  C        13.3775212354        8.3691351209       17.9328301185
  H        13.5475036523       10.5841514549       18.5670854149
  C        19.7073256909       15.1234682691       -3.4893185920
  N        19.6237052807       16.4661617954       -3.5982967073
  O        18.6526379080       18.1255683954       -2.3481873819
  H         9.0225936923       15.2826321464       10.3612144441
  H         9.7805870415       14.8257519178        8.8936384136
  C         7.9599768169       13.7797791498        9.4155898404
  H        21.9828691367       13.8830777845       13.9583366253
  H        21.1292036173       15.1860054129       13.1984493108
  C        21.0646968814       15.2452724168       15.3646347081
  C        13.0260715690        7.5120211205       19.0611185935
  S        20.0733138124       14.2388844753       -4.9180522289
  C        19.6775244237       17.0960807887       -4.8790581647
  H         7.5624003815       14.3850870753        8.5693661141
  H         8.0932656163       12.7957903169        9.0146517213
  C         6.8953883478       13.7996514153       10.6075713093
  H        21.5646657920       14.6517865721       16.1896691796
  H        20.0727358994       15.2805570964       15.7244194097
  C        21.6120276072       16.6460820431       15.3673246327
  H        13.3306665070        6.4397136644       19.0542891522
  C        12.4609860447        7.8721518279       20.2515982504
  H        20.5884324424       16.7698883054       -5.3412902100
  H        19.8060772801       18.1701089957       -4.7111124116
  C        18.3565598585       16.8692992103       -5.6345602264
  H         6.9863903633       14.8259130400       11.0812056280
  H         7.0107193829       13.0853797320       11.3871910147
  C         5.5058993178       13.5081170631       10.2055413420
  H        21.7635618555       17.0023169701       16.3806021772
  H        22.6381672109       16.5870389525       14.8698909793
  C        20.6256767691       17.6316018978       14.8186835045
  S        12.0673215470        9.4693056262       20.7436349760
  C        12.2890802756        6.8369108632       21.2954074993
  H        17.9418936260       17.7618369122       -6.1786083143
  H        17.5310057172       16.4814052842       -4.9995145383
  H        18.4159280249       16.1377595979       -6.5198629247
  H         5.3176140555       13.6358660723        9.1490543718
  H         5.4722201748       12.4906227539       10.4338907587
  H         4.7307611645       14.0388801059       10.7435028963
  H        19.6494928381       17.3808922821       15.2595666910
  H        20.8075566126       18.6142152767       15.1091388787
  H        20.7067081969       17.5768955834       13.7312612828
  C        11.6527942806        8.7507430737       22.2817188314
  N        11.7416373528        7.4154976830       22.3747679357
  O        12.6863469325        5.6610763657       21.2060280060
  S        10.8144109883        9.5993042311       23.6274542019
  C        11.5554330819        6.6695869474       23.6042218476
  H        11.2417111125        5.6642635525       23.3600887383
  H        10.7011105799        7.0381466570       24.1330424923
  C        12.7420624801        6.6829944823       24.5689134166
  H        13.6501221887        6.8120904035       23.9510189273
  H        12.8354590758        5.7303912301       25.0843345917
  H        12.7567660338        7.5206588781       25.2896632430
