352
 i =    60600, time =    60600.000, E =        25.0235249684
  H        10.7431864486        5.0222137927       31.2362447312
  C        10.7750190771        5.9612734115       31.7668650976
  H         9.7755604416        6.3042582831       31.6018491666
  C        11.7868286925        6.8618057006       31.0769979239
  C        10.9695633708        5.8235790963       33.2717128361
  C        11.8228476708        6.4105494226       29.6118536208
  H        11.5493850255        7.8666359879       31.1839465625
  H        12.7567431261        6.8307770776       31.5914161544
  H        10.0706252687        5.9084254729       33.8802189755
  H        11.2935375571        4.8292260569       33.5461262589
  H        11.5632955178        6.6040976819       33.7367269036
  C        10.5021512155        6.2749278912       28.8338600562
  H        12.2621272024        5.3933809039       29.6269377594
  H        12.4636445171        7.0986173027       29.1159117658
  C        10.6262395801        5.9841425746       27.3170959414
  H         9.9304059041        5.4526137983       29.2499071982
  H         9.9116906574        7.2051533583       28.9123852613
  C         9.5731758281        5.1938161568       26.6628052036
  H        11.4911670567        5.4007970344       27.0733187257
  H        10.7912471030        6.8283962639       26.7362852652
  C         8.3817704800        6.0068951973       26.1822393759
  H        10.1131259941        4.9213869381       25.7428759837
  H         9.3201961337        4.3729213364       27.3509066184
  C         7.3219935570        5.1556917958       25.4378892378
  H         7.9430498677        6.4155237323       27.1461418794
  H         8.6984780305        6.8302374040       25.5628085901
  C         7.0989402310        3.8602790209       26.2202411439
  C         7.8374803065        4.4688068203       24.2421901178
  C         6.0067316226        5.8607794281       25.0457743974
  C         7.2911320300        2.7621804963       25.3827703396
  C         6.6727040967        3.5164617444       27.5013099550
  C         7.7473047779        3.1408773599       24.1541787449
  C         8.1363748142        5.1179853916       23.0457699629
  H         5.4557116690        5.2908352230       24.2395978382
  H         6.3017391508        6.8314903385       24.6056957031
  C         4.9681836081        6.1047126079       26.0997359378
  S         6.8951236900        1.3166090487       26.1837300543
  C         6.4347310030        2.1821557490       27.6413538309
  H         6.4361146475        4.2644134095       28.2199951863
  C         8.0512528944        2.4720288201       22.9595397332
  H         8.1729992568        6.1851712399       23.0311210532
  C         8.4417572788        4.5043164166       21.8576279145
  H         4.9533277215        5.3837611000       26.8991936634
  H         5.2998587461        7.0343645704       26.5561261199
  C         3.5070077545        6.1074231148       25.6582799117
  C         5.8781364776        1.5090795076       28.8068630588
  C         8.4399715843        3.1274524629       21.7743335353
  H         7.9131119522        1.3726484808       22.9563499172
  C         8.8322681673        4.8362653802       20.5963714006
  H         3.2321591493        5.3290658673       24.9970372027
  H         3.4082284285        7.0172719269       25.1277271050
  C         2.5160397980        6.2247073150       26.7903145775
  C         5.9262031675        0.0950612065       29.0756004015
  C         5.4070441283        2.3260026186       29.9436517472
  C         8.8560369509        2.3539244657       20.4988510209
  C         9.2323550088        3.7368376943       19.8192237771
  S         9.0076043921        6.2874768246       19.7920833042
  H         1.7324404121        6.9673607064       26.6470600669
  H         3.0466139881        6.4911923915       27.7023041184
  C         1.5879114993        4.9686875259       27.0783875050
  N         6.2154197034       -0.9025700053       28.0792240647
  C         5.5387371731       -0.4352559582       30.2732047234
  C         5.1971671812        1.7676913938       31.2123519906
  H         5.2509443178        3.3547391777       29.8638653852
  C         7.7103487184        1.5721296196       19.7956510306
  C        10.1861870903        1.4919449391       20.7068365448
  C         9.6736114770        4.1275456989       18.5699041936
  C         9.4707792947        5.4327585411       18.4097737279
  H         0.9235679543        4.6626764500       26.2736770922
  H         2.3108477739        4.1765162860       27.1987705497
  C         0.7185225422        5.0669162975       28.3027618633
  S         6.1049077303       -2.3140367915       28.8572232356
  N         5.5702128250       -1.8038813263       30.2758634690
  C         5.1722863964        0.3090076477       31.4113621940
  H         4.7715170088        2.5047736320       31.9041063752
  H         7.2514003068        0.8399477848       20.4503482568
  H         8.1362922376        0.9644334372       19.0343409400
  C         6.6330193665        2.4671673682       19.1045200723
  H        10.4253889409        0.8847795072       19.8158608199
  H        10.0508978326        0.7528921480       21.4295723784
  C        11.4778299466        2.2286997469       21.1000973693
  H        10.0385752295        3.3230974282       17.8519706913
  C         9.6418297314        6.1966340159       17.1118145577
  H         0.0071861577        4.2425883489       28.2646775446
  H         0.1520830057        5.9390574148       28.1243693276
  C         1.4939548266        5.2749596453       29.5890583717
  C         4.7638489427       -0.2711589509       32.5908864083
  H         7.0974708266        3.0112599087       18.3499765900
  H         6.3728096558        3.3348030261       19.8492830733
  C         5.4458021255        1.6120234383       18.5946106823
  H        11.1812903007        2.9196545936       21.8746141790
  H        11.9099126484        2.8143271628       20.2854258148
  C        12.5627391669        1.2210847547       21.4999668711
  C         9.5679385406        7.6092498014       16.9664710022
  C         9.8727772221        5.3700909468       15.8820887559
  H         2.4877625235        4.8736636958       29.6554282042
  H         1.6852584954        6.3831700684       29.7588841427
  C         0.5713496720        4.8820419986       30.7855338988
  H         4.5551204098       -1.3027038810       32.4726567544
  C         4.4192287224        0.2558283974       33.7994349483
  H         5.1578639646        0.8285289176       19.2413261217
  H         5.9155449515        1.0263139635       17.7434921252
  C         4.2804762950        2.4341676455       18.0872828444
  H        12.1243470179        0.5690952585       22.2790384317
  H        12.7275532482        0.6006901631       20.6248965403
  C        13.8991871115        1.8530855503       21.7498800119
  N         9.3939630514        8.5143445143       17.9975539472
  C         9.8679525363        8.2184569395       15.8216429668
  C        10.1641800226        5.9637476377       14.7121168760
  H        10.0331613324        4.2654066695       15.8939029338
  H         0.0002896597        3.9756328016       30.6207950889
  H         1.1967776926        4.7888382010       31.7249793143
  H        -0.2000962078        5.6703321315       30.8518773941
  S         4.1078364351        1.9310936035       34.2681775447
  C         4.1274594635       -0.7442268856       34.8918408930
  H         4.3344080545        3.4420598897       18.5440163010
  H         4.3756214224        2.6248546989       17.0847493048
  C         2.9655956006        1.7120186889       18.2660594360
  H        14.0242704320        2.6114752841       20.9738495566
  H        14.7223665576        1.1910187049       21.6367975607
  C        13.7580506960        2.3088232234       23.2147504145
  S         9.5479568279       10.0839585819       17.4265064718
  N         9.7488920767        9.6312176864       15.9283026148
  C        10.1811020353        7.4498128342       14.6796009618
  H        10.3390732166        5.3087305413       13.8780077457
  C         3.8044656636        1.2731414136       35.9076671693
  N         3.7150574664       -0.0838497153       36.0164049725
  O         4.2937642178       -1.9345689030       34.8278193887
  H         2.1040197573        2.2036634427       17.7966454777
  H         2.5930475245        1.6355733453       19.2235328301
  C         2.9720810451        0.3108262810       17.5954448495
  H        12.7815179571        2.8883061966       23.1955032755
  H        13.4822918258        1.4541035808       23.8988294700
  C        14.9114783852        3.1218522817       23.8356838137
  C        10.6253963277        8.2061326152       13.4940776571
  S         3.4653812504        2.1861665680       37.3934232871
  C         3.5346073298       -0.8524968368       37.2654308857
  H         3.4164104120        0.3934693553       16.6161662911
  H         3.7151170698       -0.4016374732       18.0809611642
  C         1.6374956552       -0.4075017550       17.5401914482
  H        14.5904469762        3.4751026730       24.7690983387
  H        15.0557754030        3.9463121745       23.1766539513
  C        16.1993395679        2.3460409048       24.0606002644
  H        10.4985826087        9.2516493101       13.5111054868
  C        11.1732284403        7.9022110042       12.2649825427
  H         2.8179734633       -0.3466047534       37.9223745764
  H         3.1362004727       -1.8524740491       36.9776028062
  C         4.9021845651       -1.0894428464       37.8909546053
  H         1.5776547558       -0.7872986800       16.5171409176
  H         0.9121915407        0.3461261525       17.6981141118
  C         1.3547874258       -1.4404558610       18.5386561499
  H        16.7137877909        2.6298551454       24.9534792172
  H        15.9947802234        1.2767275390       24.3653757220
  C        17.1751955137        2.4242270175       22.8219136512
  S        11.8260783066        6.4699046404       11.8078016876
  C        11.2051734877        8.9333330727       11.2445478745
  H         5.0681111947       -0.5102204171       38.7867415458
  H         4.9455939715       -2.2151389375       38.0712096613
  H         5.6276946634       -0.9885199480       37.1133171104
  H         1.9390247720       -1.2921482370       19.4186444569
  H         1.6429803107       -2.3967253107       18.0639128627
  H         0.2775017186       -1.3326617449       18.8096359420
  H        16.7746437693        1.7707322758       22.0870841577
  H        18.1026953955        2.1226347425       23.2757022135
  H        17.3297007172        3.4157615340       22.3989190249
  C        12.0947298715        7.1827230990       10.1954757238
  N        11.8116341544        8.5040137122       10.1372445903
  O        11.0436532586       10.1015198980       11.4839482897
  S        12.7935978154        6.4190112629        8.7838275425
  C        11.9866480163        9.4498644736        8.9854434561
  H        12.2789641389       10.4629686229        9.2938710508
  H        12.7817172120        9.0943960665        8.2598390117
  C        10.6802110000        9.5084211455        8.1714199513
  H        10.2421283447        8.5811462463        7.8899923433
  H         9.8985831598       10.0773528906        8.7229103014
  H        10.9677146522       10.0176527554        7.2216590744
  H        22.4277212204        8.7909443772        3.7413123200
  C        23.2071665295        9.5837676221        3.7881497961
  H        24.1506959742        9.0896408838        3.6882382678
  C        22.9910159725       10.3219158040        5.0514838443
  C        22.9885195532       10.4432378690        2.5068617349
  C        21.4690160663       10.5017370568        5.5012850047
  H        23.5664817001        9.7114008077        5.7693808813
  H        23.5802338861       11.2895901706        4.9820678568
  H        21.9591078170       10.8892573105        2.4906090170
  H        23.1362392703        9.7941141106        1.6226340591
  H        23.7478243949       11.2659505381        2.5176832189
  C        20.8016626166        9.3521973302        6.1896549389
  H        21.3495767156       11.4144071249        6.0975661317
  H        20.9620552109       10.6557303118        4.5636432836
  C        20.2540321732        9.5064224252        7.6097260854
  H        21.5689212333        8.6283455378        6.2632612472
  H        20.0408989767        8.9342784405        5.5604430734
  C        19.0194333524       10.4287499537        7.6331662246
  H        21.0220719815        9.9969968465        8.2428055119
  H        20.1340367599        8.5284111708        8.0808824693
  C        17.7151865351        9.7371224637        7.2327784646
  H        18.9067549500       10.7207753523        8.6618657240
  H        19.4189959536       11.2740587483        7.0698805201
  C        16.4706604085       10.6729929060        7.1110366729
  H        17.6360315388        8.8563059912        7.8999415467
  H        17.8614368437        9.2490876412        6.2299142527
  C        16.8476039334       11.9777549394        6.3926759220
  C        16.0883240911       11.4219300208        8.2988303583
  C        15.2775283589       10.0747043274        6.3393074805
  C        16.5698998953       13.1205514580        7.1381016268
  C        17.4987577371       12.2574186893        5.1914923094
  C        16.0628333935       12.7948154081        8.3708542645
  C        15.6103640191       10.6350237222        9.3720001075
  H        15.6125764922        9.6528067867        5.3396590366
  H        14.8777591218        9.2477554123        6.8407351555
  C        14.0461763804       11.0211207231        6.0722584506
  S        16.9682317350       14.5721530491        6.2608493943
  C        17.6114658996       13.6282116915        4.9624775440
  H        17.6387293174       11.4567149556        4.5130745311
  C        15.7070573442       13.2926226469        9.5963406396
  H        15.7447869233        9.6198309826        9.2835269181
  C        15.2259650038       11.2130461529       10.5206876654
  H        14.3418645999       12.0188991131        5.7498081050
  H        13.5593565259       11.1204243856        7.0440228261
  C        13.0904697670       10.5202754860        5.0431133018
  C        18.1213216195       14.2342069612        3.7021486327
  C        15.3336654049       12.5208259825       10.6839987886
  H        15.6077969130       14.3738584219        9.6826676758
  C        14.7982237655       10.8407424264       11.7701866943
  H        12.1303006403       11.0924941867        5.0117891610
  H        12.6880617437        9.5492952564        5.2920044502
  C        13.7338506653       10.5217112061        3.6478448538
  C        18.1691428708       15.5596925574        3.3613577063
  C        18.3779038133       13.2839258751        2.5470896328
  C        14.8848976694       13.2495616229       11.8851769036
  C        14.6144605523       11.9092500521       12.6349453384
  S        14.4473813045        9.2965206039       12.4153718749
  H        14.5210470787        9.7865729191        3.4998145226
  H        14.1622790664       11.5523088834        3.4750955541
  C        12.5111026210       10.2735904056        2.7232395535
  N        17.8601424420       16.5894873616        4.2522351028
  C        18.5572198068       16.0470243964        2.1449925500
  C        18.7661039786       13.6907685737        1.3114926917
  H        18.3110807536       12.1881810894        2.6216349577
  C        13.5160652195       14.0147654097       11.6835765860
  C        15.9547193929       14.0293199098       12.6875174788
  C        14.2485007607       11.4392982182       13.9061195753
  C        14.1314643357       10.0539557175       13.9266208723
  H        11.7479326954        9.7036444149        3.3029008462
  H        12.0707121364       11.2668137338        2.5445929249
  C        12.8179966411        9.5526696222        1.3871229610
  S        18.2113819772       18.0219971795        3.5246557136
  N        18.6201259630       17.4436774025        2.0607296170
  C        18.7868733557       15.2002208749        1.0094184269
  H        18.8692243021       12.9871163006        0.5338557824
  H        13.7109658457       14.8732742117       11.0794866288
  H        13.1904072952       14.3543359090       12.6490569413
  C        12.4992920700       13.1640878913       10.8762331069
  H        16.1325817617       14.8748827091       12.1041447490
  H        15.4436163618       14.3476344195       13.5802517099
  C        17.2264775597       13.2589745710       13.0365750662
  H        14.0780336988       12.1324518919       14.7315992584
  C        13.8426213251        9.1899588060       15.1253801896
  H        11.8450423373        9.0400738137        1.0867738051
  H        13.5830370017        8.6484307558        1.5579047396
  C        13.3973076257       10.4713141493        0.2469621900
  C        18.9179787984       15.8483728212       -0.2726108413
  H        12.8217247619       12.8778713310        9.8468982486
  H        12.2820433490       12.1550399638       11.2213688242
  C        11.1175140103       13.8404885355       10.8063517454
  H        17.6347493532       12.8604578773       12.1066868117
  H        17.1367944867       12.4442782654       13.7271563797
  C        18.3196048828       14.1946531099       13.5970905877
  C        13.7157084230        7.7876391657       15.2599869598
  C        13.4326031127       10.0393480448       16.3044993412
  H        13.3142677594       11.5707998032        0.5821100573
  H        14.4779344402       10.3154064221        0.2272504493
  C        12.7249207016       10.2277830745       -1.1188435155
  H        18.9094713100       16.8768987039       -0.2840402891
  C        19.0944699652       15.4051976335       -1.5499710724
  H        11.3255636902       14.8493022647       10.5164024988
  H        10.6225932559       13.9404541602       11.7026216221
  C        10.1875910766       13.2886506063        9.7981415431
  H        18.3976368674       15.0782684960       12.9564794130
  H        18.0052010305       14.5347371377       14.5449473617
  C        19.7476524828       13.4692273144       13.4264145078
  N        14.0831798943        6.8044906792       14.2922005384
  C        13.4895410517        7.2097320487       16.4291394583
  C        13.1068346680        9.3736028178       17.4778330777
  H        13.5621148862       11.1077659618       16.2673838852
  H        13.1226760021       11.0305869385       -1.7856304846
  H        11.7027147399       10.3736849407       -1.0673291315
  H        12.8762485891        9.2370462664       -1.5558925250
  S        19.5050729243       13.8038784780       -2.1122643398
  C        19.1935947207       16.4847386132       -2.5951481004
  H        10.3749341959       13.7388763350        8.8005304937
  H        10.2767922810       12.2136864023        9.8567270537
  C         8.7424633915       13.7620080121       10.1799480668
  H        19.9076573741       13.0485784789       12.4696759394
  H        19.7681754334       12.6100101569       14.0511050023
  C        21.0195744724       14.2339572358       13.8274220235
  S        14.0561570410        5.2935759064       15.0019015758
  N        13.7094943552        5.8380770540       16.4877686155
  C        13.1695100290        7.9203823971       17.6148022802
  H        13.0158606960        9.9825730801       18.3493324683
  C        19.6261854887       14.5564568298       -3.6843587318
  N        19.4903122051       15.8904670909       -3.7662413504
  O        19.1917400319       17.6954176748       -2.4212572602
  H         8.4415998731       13.0737849766       10.9241792419
  H         8.8819668132       14.7257791872       10.7050385730
  C         7.8231467776       13.7837533661        8.9482099167
  H        21.1037461239       14.3022128392       14.9112349673
  H        21.9514267150       13.7086216699       13.5161688630
  C        21.0929411316       15.6692836291       13.2634685644
  C        12.9293875923        7.2680245227       18.8571311815
  S        19.9305620362       13.5285727289       -5.1516420427
  C        19.4373021629       16.5807833865       -5.0600457572
  H         8.2870079172       14.2994846951        8.1363419335
  H         7.8329448685       12.8240360091        8.5986211440
  C         6.4236507883       14.2043149526        9.2523791396
  H        20.0650145340       16.0476680257       13.2590230745
  H        21.4743886168       15.6189700238       12.2218074394
  C        21.9742782143       16.5941748220       14.2143536695
  H        13.2936720333        6.2260216700       18.8513704602
  C        12.3548943890        7.5767755035       20.0164596366
  H        20.0942949459       16.1918730465       -5.8282596159
  H        19.7556151606       17.6217882380       -4.9167506727
  C        18.0860244971       16.7057707214       -5.6077815443
  H         5.6389373201       14.0611661566        8.5060087523
  H         6.5501563085       15.2645642101        9.2306730411
  C         5.8035009094       13.7968182960       10.5703658009
  H        22.9139254388       16.0909954233       14.3570159363
  H        22.0284007964       17.6040463136       13.7503477528
  C        21.2840249906       16.8493384527       15.5624366830
  S        11.8344084590        9.1054512462       20.5713113174
  C        12.1826753655        6.4342873372       21.0139286357
  H        17.4172953496       16.3227841569       -4.8838001524
  H        17.9851008882       16.0389040885       -6.4511949837
  H        17.7946795820       17.7433528658       -5.8076436884
  H         5.8143233511       12.6846500734       10.6263167403
  H         6.2086087015       14.2010879684       11.4450770822
  H         4.7481875909       13.9803055284       10.4815769040
  H        21.3599246327       17.9125008764       15.7413547587
  H        20.2860034951       16.4922638609       15.5596047634
  H        21.7367337748       16.4713218413       16.4650878893
  C        11.5520173597        8.3131280893       22.1379674410
  N        11.6509834784        6.9498056599       22.1049527684
  O        12.5105031338        5.2467593802       20.7685204228
  S        10.8672312460        9.0851625850       23.5975722216
  C        11.4807863310        6.0750822233       23.2981975654
  H        11.3080257499        5.0762174513       22.9192275097
  H        10.6998446139        6.3503821481       23.9650493192
  C        12.6813955707        6.0841079449       24.1598496221
  H        12.3722629183        5.3255458645       24.9761726381
  H        12.9649261444        7.1031826105       24.4258954219
  H        13.5477369901        5.5267003041       23.7679509531
