352
 i =    37200, time =    37200.000, E =        25.0045097651
  H        10.9059041011        8.0305242209       32.4685388854
  C        11.2751737256        7.0334878531       32.6409973267
  H        12.3851598987        7.0093430311       32.5096504491
  C        10.5941435440        6.1374961610       31.6324331731
  C        10.9793811169        6.5127596146       34.0621923991
  C        10.7708714921        6.5997522246       30.1655436988
  H        11.0007561099        5.1814633356       31.6915081977
  H         9.5291308666        6.0252267633       31.9118190711
  H         9.9155273797        6.4530386003       34.1812535067
  H        11.3603999026        5.5382928201       34.2081133951
  H        11.4815819853        7.1340757907       34.8089321706
  C        10.1529848787        5.6496369675       29.2222144023
  H        11.8071284045        6.9256661141       30.0321508033
  H        10.1694928022        7.5046665717       30.0348470631
  C        10.5440058400        5.9790045254       27.7881232922
  H        10.5274104433        4.5700034893       29.3820618039
  H         9.1020245057        5.5875233342       29.3344846021
  C         9.5476620973        5.3214267190       26.7953678265
  H        11.5689668624        5.5320040236       27.6890369666
  H        10.5805551325        7.0394553299       27.6202492733
  C         8.4186177617        6.3214642463       26.4881346573
  H         9.9855864743        4.8169238536       25.9180469784
  H         9.1506580480        4.4157084867       27.3411997448
  C         7.2734775783        5.5958292288       25.7667463961
  H         8.1774123735        6.9321478461       27.3662552035
  H         8.7727581157        6.9965109840       25.7083671397
  C         6.9001528316        4.2957573373       26.4960614913
  C         7.7057685585        4.8762572544       24.5363179201
  C         5.9995636733        6.4642702282       25.5937480170
  C         7.2333331755        3.2017254295       25.7094198123
  C         6.5801739285        3.8951091875       27.7876387330
  C         7.6141079271        3.5472908501       24.4079947422
  C         8.1282496921        5.5504978399       23.3591739014
  H         6.2093012397        7.3851660823       25.1279091138
  H         5.7479460975        6.7552257216       26.5480957114
  C         4.8030827782        5.6515041702       25.0076693386
  S         6.7580852848        1.7525648091       26.4197672821
  C         6.3517088043        2.5144386808       27.8629498473
  H         6.4690623268        4.6490484929       28.6150255157
  C         8.0082154012        2.9584659052       23.2447155686
  H         8.1000390246        6.6218931464       23.3277388388
  C         8.4726578499        4.9466859685       22.1477698264
  H         5.0641292853        5.2786824383       24.0792640435
  H         4.5188207542        4.7888084079       25.6011882960
  C         3.4850445069        6.4874926470       24.9507750735
  C         5.9595574180        1.7903769707       29.1536719941
  C         8.4517908097        3.5853219430       22.0373539682
  H         7.9247588625        1.8457804956       23.2762058573
  C         8.9520419431        5.3058139294       20.8973522540
  H         2.8637786346        5.9750648445       24.2303675120
  H         3.6799256877        7.5182506762       24.5866763865
  C         2.9890563024        6.6923676468       26.3330320228
  C         5.8509380339        0.4174536430       29.3425010346
  C         5.4928243682        2.6077547348       30.2964231859
  C         8.6467334276        2.8684457552       20.7765867630
  C         9.0151867542        4.1953784960       20.0407117714
  S         9.2629700674        6.7622727781       20.0827062834
  H         2.0912974369        7.3150007902       26.2930580454
  H         3.6710643042        7.3289481785       26.8693688747
  C         2.6129966085        5.3468905572       27.0662793521
  N         6.1588525775       -0.5515880746       28.3270596282
  C         5.4894391080       -0.1639409240       30.5582727494
  C         5.0839834306        1.9590844262       31.4673890459
  H         5.4127673382        3.6872365624       30.2962490290
  C         7.3121086661        2.2555626551       20.3044241025
  C         9.8567382622        1.9118296666       20.7974595638
  C         9.4170765287        4.5068058748       18.7443597669
  C         9.5778815103        5.8748866360       18.5931508140
  H         2.5951326380        4.5530658600       26.4165909230
  H         3.4760576145        5.0841248099       27.6187312262
  C         1.2961879344        5.3579745278       27.8330438986
  S         6.0871244124       -1.9680324979       28.9532971146
  N         5.6370068481       -1.5687293329       30.5340443302
  C         5.0767107456        0.5017911752       31.6725592688
  H         4.5496744060        2.6295822236       32.1415769156
  H         6.9092358876        1.6576849105       21.1071375237
  H         7.4510620395        1.5673659726       19.4557314462
  C         6.1483466302        3.2112085477       19.8741164022
  H         9.8084642435        1.3401775245       19.8995415600
  H         9.9026894439        1.1492627401       21.6032849779
  C        11.2751091167        2.5035368051       20.8218560267
  H         9.4496714051        3.6677238418       18.0550905063
  C         9.9327836395        6.5556114220       17.2907044558
  H         0.9404523018        4.3932631705       28.0114853756
  H         0.5630289818        5.8538751027       27.1771193041
  C         1.5456521765        6.0686732522       29.1764464902
  C         4.8440762471       -0.2317434539       32.8631028635
  H         6.5100837732        3.7272938965       19.0310686877
  H         6.0158593172        3.9898289295       20.6458975393
  C         4.7192832227        2.6024320208       19.5910162483
  H        11.3490226241        3.2834882059       21.5702228210
  H        11.5709973659        2.9720456641       19.8426794621
  C        12.3210182273        1.4125897509       20.9294615338
  C        10.0421882337        7.9705177010       17.0045048379
  C        10.2669650399        5.7188657208       16.1432897071
  H         2.3291675526        6.7755633759       29.0940281025
  H         0.5904474585        6.5549187830       29.4354282410
  C         1.8058389101        5.1087124170       30.2886271540
  H         4.9611252779       -1.3021225832       32.8555352021
  C         4.6662198393        0.1694292862       34.1306829912
  H         4.0174242063        3.2411595245       20.0726514520
  H         4.7078079180        1.5514579647       20.0505783141
  C         4.3462628359        2.4484353614       18.1097267772
  H        12.2768961531        1.0113021001       21.9316972029
  H        12.0014587397        0.5754521167       20.3294565958
  C        13.7522557439        1.9838442233       20.6737225676
  N         9.7454501494        9.0362736705       17.8961710182
  C        10.3181913878        8.5265176959       15.7858569715
  C        10.5423146882        6.2895685254       14.9103372221
  H        10.2228264142        4.6759602322       16.1257777914
  H         0.9581367934        4.4465091812       30.4215434247
  H         2.7351739190        4.5091916953       30.1416028714
  H         2.0405459524        5.6391668546       31.1754189090
  S         4.3022605276        1.7608889364       34.7208011255
  C         4.6744169668       -0.9000934852       35.2407947691
  H         4.2216245217        3.4176996208       17.6488763109
  H         5.1874245661        1.9589908848       17.6537165613
  C         3.0727606327        1.6034709035       17.9534542664
  H        13.8189130350        2.5949783554       19.7912861453
  H        14.2560791365        1.0994459850       20.3499947805
  C        14.2468687736        2.6344573110       21.9481257232
  S         9.8483724527       10.4919762634       17.1974510858
  N        10.3560605438        9.9365679459       15.7475888250
  C        10.5920102074        7.7734527908       14.6396943253
  H        10.6732780665        5.6722352511       14.0660789367
  C         4.2671487995        1.0069188882       36.3795680550
  N         4.4233559653       -0.3605345742       36.4328020894
  O         4.7643101586       -2.1067344415       34.9944694154
  H         2.3638814577        1.9763577179       17.2043949911
  H         2.5438810965        1.6225736556       18.9354707818
  C         3.3512047907        0.1319896595       17.5557630923
  H        14.9674907142        3.3538791004       21.5557214830
  H        13.4484541166        3.2404880652       22.4412222287
  C        14.8646862802        1.5995626918       22.8794995777
  C        10.7866001931        8.3640911108       13.3720406875
  S         3.9301816680        1.9930034786       37.8153726695
  C         4.6280951254       -1.1081545621       37.6669687273
  H         3.7722330061        0.0424242673       16.6211923511
  H         3.9385668374       -0.3958101348       18.3416181621
  C         2.0319940073       -0.5887398073       17.3575033441
  H        14.9184323358        0.6324232023       22.3921519250
  H        14.1018252794        1.4733278338       23.6713835407
  C        16.2299536673        1.9769236452       23.5463589235
  H        10.4530743927        9.3916464501       13.3562840792
  C        11.2887319334        7.9470264444       12.1828054312
  H         4.1825404541       -0.6176079869       38.4910337920
  H         4.2405516226       -2.1336227895       37.5579853726
  C         6.1024274209       -1.0676732081       38.0171969145
  H         1.7457406570       -0.5862986410       16.3459345741
  H         1.2543447388        0.0914897474       17.7399461657
  C         2.0484675737       -2.0217505288       17.8220600309
  H        16.1849910854        2.9330282277       24.1216932578
  H        16.5903905833        1.2724518472       24.3172172036
  C        17.3160241480        1.9574428909       22.5066828376
  S        11.9895512664        6.4085858228       11.7873208049
  C        11.4144442063        8.9995681051       11.0647536226
  H         6.2877999686        0.0181242919       37.9867980458
  H         6.1880902347       -1.4985195501       39.0440552034
  H         6.8007326002       -1.6060388353       37.3289577242
  H         1.1300514743       -2.2619887791       18.3526988543
  H         2.8736712116       -1.9866965354       18.5364840380
  H         2.1651688530       -2.7355747859       17.0198800253
  H        18.3554127733        2.0727297739       22.9110305514
  H        17.2570577233        2.7203564188       21.6829241686
  H        17.2274252186        1.0103105854       22.0646510887
  C        12.1796565707        7.1084071799       10.1408818836
  N        12.0099046977        8.4707593300       10.0259162889
  O        10.9554378608       10.0981266161       11.1017244157
  S        12.6630545266        6.1021316363        8.7509322493
  C        12.0398597545        9.1303474797        8.7244741660
  H        12.5334334621       10.1497639985        8.7022745006
  H        12.7696595026        8.5587470081        8.1495070293
  C        10.6782573523        8.9887708795        8.0803890174
  H        10.8072168559        9.3210196568        7.0425684171
  H        10.2639305232        8.0073218043        8.1231727912
  H        10.0353088870        9.5776569609        8.6870384734
  H        21.5550155689       11.2701129237        3.4347537163
  C        22.1552154383       10.3459635562        3.7344150065
  H        21.3096455636        9.6695988205        3.8598860021
  C        22.8607400332       10.5419247007        5.0333535541
  C        23.0437336828        9.9631206985        2.5334129901
  C        21.9809756958       10.6979548288        6.2869097134
  H        23.6677354448        9.7013188328        5.0998336995
  H        23.4992654925       11.4125309496        5.1070608959
  H        22.3498787650       10.0918943376        1.6469940232
  H        23.4213151924        8.9046543190        2.6385435795
  H        23.7880799403       10.6646175596        2.3434001364
  C        21.2729520606        9.2979984851        6.7808859294
  H        22.6884621336       10.8112367039        7.1127405375
  H        21.1917086489       11.3448978828        6.0789480144
  C        20.3305150647        9.5340072734        8.0145066087
  H        21.9755436469        8.4826898332        7.0721280988
  H        20.8331774701        8.7372460351        5.9170732711
  C        18.9781848181       10.1979951857        7.6245247328
  H        20.9970149021       10.0520200730        8.7517766308
  H        20.1956721326        8.4759434230        8.4527172377
  C        17.8560141595        9.3216626153        7.0340730120
  H        18.5243599642       10.6178975639        8.5212312859
  H        19.2281348858       11.0615959370        6.9711232354
  C        16.5225413801       10.0772863173        6.7591158607
  H        17.6013930551        8.4987403450        7.7111816727
  H        18.1580028393        8.9440048343        6.0247327155
  C        16.9715735054       11.4945681788        6.1578168530
  C        16.0920505002       10.8826242822        7.9912286144
  C        15.4797060554        9.3496850015        5.8503308156
  C        16.8428455097       12.5420186518        7.0108344769
  C        17.4382882750       11.8732927252        4.9304755458
  C        16.3425380113       12.1824530623        8.2040782497
  C        15.5610924298       10.2890714277        9.1555101448
  H        15.8757943439        9.0247006776        4.8965611968
  H        15.1851777036        8.4354412274        6.2602415760
  C        14.3402769798       10.2770051959        5.3808461077
  S        17.2625347673       14.1040242168        6.3423086691
  C        17.5680688192       13.2371595244        4.8392921131
  H        17.7418325257       11.2225737509        4.1541930211
  C        15.9582219521       12.8931601663        9.3260019627
  H        15.4324409849        9.2212097649        9.1084550440
  C        15.2526018997       10.9650903992       10.3353149827
  H        14.5845716481       11.2508592292        5.0263192717
  H        13.8603442560       10.5994968039        6.2775223240
  C        13.2284392154        9.5838124639        4.6130067891
  C        18.0055578001       14.0150804678        3.6329312591
  C        15.3659213325       12.2995135761       10.4220304837
  H        16.1806228890       13.9622743529        9.4157948455
  C        14.7919322252       10.5324708722       11.5506879781
  H        12.4175694660       10.3366698963        4.5754945658
  H        12.8090395005        8.7358812668        5.1154448591
  C        13.6814714087        9.1890470933        3.1930028672
  C        17.9609394491       15.4567907456        3.3577822674
  C        18.5069457624       13.1720167911        2.5001193756
  C        14.9842232661       13.0196455277       11.6925521990
  C        14.6597312596       11.6719332938       12.3862144800
  S        14.5427449269        9.0538537055       12.3765914888
  H        14.0501287633        8.2215616550        3.2681678197
  H        14.5579572255        9.7924000139        2.9745477086
  C        12.5871273329        9.3201439210        2.1309436068
  N        17.5593100387       16.3961035261        4.3645658763
  C        18.3069569999       16.0471538109        2.1753272793
  C        19.0096069138       13.8305614863        1.3616358524
  H        18.2733970424       12.1768158819        2.5411944085
  C        13.7048690319       13.8313611778       11.6146888217
  C        16.1935816612       13.7796010997       12.2395287971
  C        14.1507815194       11.2891145416       13.6547696521
  C        14.0712417624        9.9092888379       13.8060912132
  H        11.6759529860        8.7141789571        2.2881263205
  H        12.2988416504       10.3759371892        2.0342252121
  C        13.1143438259        8.9032867801        0.7953892493
  S        17.5815364238       17.8042347747        3.6436892975
  N        18.0964213389       17.4357866133        2.1523554883
  C        18.8847700228       15.2538574396        1.0934715549
  H        19.3656402067       13.1793992285        0.6085131183
  H        13.9021344471       14.6014971295       10.8792536663
  H        13.5221675285       14.3688001975       12.5195897148
  C        12.4587179366       13.0916708154       11.0515236932
  H        16.3668160754       14.5380098021       11.4777187886
  H        15.7660840521       14.3652425529       13.1186190036
  C        17.3190743642       12.8659221091       12.6228616087
  H        14.0714201996       12.0544328923       14.4599500975
  C        13.7713159045        9.2231826603       15.1468915800
  H        13.5530968781        7.9235041971        0.8890916057
  H        14.0092997953        9.5434128443        0.7006494450
  C        12.1246126335        8.7378055356       -0.2909744761
  C        19.1840256701       15.9288644259       -0.0979082178
  H        12.6946433823       12.4719807126       10.1911169887
  H        12.1955421842       12.2373913470       11.6040862424
  C        11.2782045205       13.9666322777       10.7293489292
  H        17.6785436443       12.3858124655       11.7082963350
  H        17.0406847718       12.0516239708       13.2016552443
  C        18.4395158278       13.7075794251       13.2939752439
  C        13.7645725145        7.8148124333       15.3500385811
  C        13.4923664693       10.0533139146       16.3176410571
  H        12.6144935413        8.0563328756       -0.9518799990
  H        11.1635606860        8.2722304744       -0.0717034831
  C        11.9003531251        9.9454348972       -1.0842894941
  H        19.0307832685       17.0068092792       -0.0516725319
  C        19.3302801563       15.5389148486       -1.4405847567
  H        11.5321447805       14.7959861036       10.0798622119
  H        10.9469916709       14.4193736841       11.6349962224
  C        10.1052723497       13.0813724517       10.2941677009
  H        18.6522340291       14.5478076227       12.6327251211
  H        18.0007375383       14.1156518644       14.2581174383
  C        19.7935255877       13.0028359780       13.6601904941
  N        14.0424995118        6.7969655462       14.4014238283
  C        13.3945153457        7.2581137533       16.5584166812
  C        13.1701876254        9.4872475755       17.5268946755
  H        13.5268910840       11.1753836676       16.2811889935
  H        12.8792688354       10.3254198011       -1.4632546008
  H        11.3210346416       10.7665910303       -0.6338506204
  H        11.2282204268        9.7178510545       -1.9242543993
  S        19.6437748250       13.8809173215       -1.9456698495
  C        19.4162533016       16.5350437497       -2.4523839816
  H        10.4853816635       12.2548136226        9.6955336250
  H         9.5735962552       12.5851720536       11.1496094581
  C         9.0981016262       13.7274328118        9.3050038548
  H        20.0425162487       12.4332188869       12.7655763223
  H        19.7542726195       12.3121118091       14.5088009849
  C        20.8810014490       14.0514074584       13.8551716855
  S        14.0434988341        5.3733086691       15.0843337130
  N        13.4225239464        5.8344525577       16.4938353552
  C        13.1112418595        8.0041063638       17.7133885272
  H        12.9277657399       10.0610577206       18.4080825900
  C        19.8419203023       14.5951975328       -3.5231709658
  N        19.8459892770       15.9557967440       -3.5914413184
  O        19.3861387779       17.7865579095       -2.2613883570
  H         8.6944158631       14.5626163729        9.9062690897
  H         9.5387771989       14.0772066895        8.4452583969
  C         7.9278692793       12.8495523057        8.7077907960
  H        21.7431409686       13.4439769809       14.1673157529
  H        21.1653646055       14.4616786238       12.8575476079
  C        20.5610129177       15.0394794764       14.9156800597
  C        12.7061423040        7.3089749537       18.8948565468
  S        20.4054199329       13.6810247075       -4.8856260507
  C        19.9517130162       16.7318919214       -4.8510436010
  H         8.2613266555       12.5425106850        7.7190833948
  H         7.8488074200       11.9817410588        9.3615443805
  C         6.5574417853       13.6385846360        8.5661597799
  H        19.9459347208       14.5931274202       15.6885275465
  H        19.9580076982       15.8290375559       14.4774526175
  C        21.7491565212       15.6700936766       15.5660715684
  H        12.8903621923        6.2703529061       18.7841134163
  C        12.4184286161        7.6972292033       20.2218377008
  H        20.7128170046       16.3220527358       -5.4993997981
  H        20.2903880571       17.6874891558       -4.6182560311
  C        18.5972430975       16.8230919618       -5.5250323707
  H         5.8124551733       13.0708438245        7.9453375149
  H         6.5463252921       14.5138254245        8.0002037702
  C         6.0097835251       13.8987968842        9.9786570002
  H        21.3679671975       16.0915712071       16.4649548931
  H        22.4660941299       14.8826440762       15.8655158253
  C        22.3599078964       16.6859943616       14.7696438589
  S        12.0833447442        9.2973361058       20.8123969816
  C        12.3181291919        6.5926312173       21.2031550362
  H        17.8008934700       17.0807190476       -4.7442681083
  H        18.3197819471       15.8735474709       -6.0632415766
  H        18.6364004240       17.7527338830       -6.1442463258
  H         6.4346868427       13.1507613170       10.6327781919
  H         6.1506172920       14.8673866608       10.3146753220
  H         4.9631590507       13.7776880522       10.0182919480
  H        22.8280041854       16.2068376835       13.8416664376
  H        21.6014523551       17.3918012205       14.4129437324
  H        23.2745162286       17.1381467264       15.2839865611
  C        11.8778164479        8.4639662380       22.4209758176
  N        11.8768400935        7.1001067848       22.3600328195
  O        12.6482582148        5.4359862952       20.9956278068
  S        10.9617279738        9.1090951814       23.8423418085
  C        11.6356393904        6.2244322942       23.5549459635
  H        11.4339179286        5.2087870062       23.2324985082
  H        10.7659473470        6.6200790782       24.1878888721
  C        12.8892602954        6.2004677567       24.3150240156
  H        13.7882732949        6.1506101539       23.7032602208
  H        12.9774511697        5.2326223291       24.8184468361
  H        12.8913057919        7.1130981934       24.9096022117
