352
 i =    50200, time =    50200.000, E =        25.4980374599
  H        10.0287736345        7.0556437790       32.2915180312
  C        10.9488096084        6.5106777289       32.1294033226
  H        11.6538184148        7.3103926572       32.0115135799
  C        11.1337435363        5.6102551264       30.8907041790
  C        11.2214920747        5.7023812423       33.4413880901
  C        10.8705176881        6.3765383398       29.6131645888
  H        12.0767198277        5.1420872496       30.8955398245
  H        10.3322867426        4.8881786963       31.0453696958
  H        11.0251902543        6.3400007442       34.3199503693
  H        10.5838145835        4.8557212075       33.4988850678
  H        12.2953600889        5.3954659546       33.3101488335
  C        10.4236414573        5.4248092960       28.5830872015
  H        11.7867407621        6.7920583628       29.3635724122
  H        10.1431664021        7.1173500149       29.8289300128
  C        10.7363239519        5.9365521312       27.1712139213
  H        10.8568356034        4.4588246264       28.7214475042
  H         9.3990312504        5.5539630205       28.6581000831
  C         9.8246045098        5.2974943671       26.1516875210
  H        11.7184337957        5.7921386166       26.7796895244
  H        10.6356080780        6.9294777366       27.1107332709
  C         8.4957791131        6.0800661148       25.9327195223
  H        10.3633313582        5.2479518652       25.1902708484
  H         9.5992105991        4.3101936425       26.5330982792
  C         7.3198396530        5.2914105443       25.3028463093
  H         8.0571726016        6.5398828014       26.8473407686
  H         8.7139373247        6.9968534393       25.3479151927
  C         7.0117745250        3.9711476221       26.0149704214
  C         7.7307039526        4.5068606762       24.1008178298
  C         6.0131967673        6.1223494673       25.2255641924
  C         7.2441121590        2.8496099091       25.2916674638
  C         6.5232887614        3.6380548605       27.2490331226
  C         7.6910783570        3.1856085049       24.0431807303
  C         8.2824277490        5.2204196244       23.0085631285
  H         6.2529976240        7.1237567539       24.8406978822
  H         5.6803919120        6.3186193696       26.2005994685
  C         4.9725657191        5.3648322235       24.4016949275
  S         6.8472982063        1.4024892727       25.9677342184
  C         6.3857008066        2.3106432770       27.4034956885
  H         6.3295814293        4.4475109886       27.9586723459
  C         7.9992551880        2.5714555159       22.8894541820
  H         8.3457231471        6.2699317217       22.9932949466
  C         8.5868789393        4.6723434882       21.8748612815
  H         5.3946563459        5.3536755478       23.3673427048
  H         4.7456565555        4.3284307263       24.7423565956
  C         3.6372082109        6.0631646362       24.4838866232
  C         5.7980703378        1.6555488535       28.5554966134
  C         8.4801005693        3.3106199612       21.7431847639
  H         7.8968573998        1.5024572011       22.7246389159
  C         9.0621740927        5.1754401186       20.6320040596
  H         2.9213454952        5.4142172110       23.9723204183
  H         3.7022134291        6.9939000401       23.9247818326
  C         3.0683923947        6.1636047223       25.9128019830
  C         5.8442294346        0.2425829620       28.6850049229
  C         5.3349725847        2.4855559764       29.6900282564
  C         8.8073273461        2.7413360565       20.4207459100
  C         9.1032251386        4.1295624909       19.7438258719
  S         9.5354819959        6.7242503178       19.9112658223
  H         2.2698263313        6.9136955048       25.8713705037
  H         3.7520515172        6.6843175660       26.6490572116
  C         2.4845605412        4.7840385970       26.4558881482
  N         6.2480386042       -0.7583737829       27.7600941705
  C         5.4479585629       -0.3419128403       29.9055498138
  C         4.9176385032        1.8958775599       30.8752365269
  H         5.2052268777        3.5889495472       29.6327444857
  C         7.6766342016        1.9861516806       19.6458480429
  C        10.1477508247        1.9678195820       20.5235750162
  C         9.5617436899        4.5467056370       18.4550483191
  C         9.7155488541        5.9405299679       18.3393526584
  H         1.8852988615        4.3960462714       25.6519652703
  H         3.2808897044        4.0027347123       26.5563445409
  C         1.7209988199        4.9343579607       27.7533660449
  S         6.1824339085       -2.2636222064       28.4758679742
  N         5.6954214562       -1.7269499698       29.9616524039
  C         5.0714343739        0.4668072143       31.0212001401
  H         4.6556050416        2.5968371807       31.6894112629
  H         7.5446019416        0.9706711454       20.2058199373
  H         8.0403396858        1.7254609851       18.6725165800
  C         6.3316749766        2.8399067822       19.4556462014
  H        10.3411894787        1.5741374333       19.5563517563
  H        10.1102682267        1.1037824096       21.1337165651
  C        11.3167412403        2.7944025794       20.9588225697
  H         9.6584657763        3.8083785981       17.6838986852
  C        10.0913523523        6.7287670575       17.0937985139
  H         0.8398005482        4.2278248610       27.8754874719
  H         1.1577054183        5.8480924662       27.7124308100
  C         2.6604346092        5.1083188003       29.0025077755
  C         4.7938248099       -0.1319713428       32.3139885233
  H         6.5150298238        3.6727464227       18.8386074458
  H         5.8995066590        3.2881840684       20.3748916915
  C         5.3183895506        1.9309845318       18.6567562964
  H        11.2653222949        3.2953603468       21.9372964031
  H        11.5412075823        3.5542716186       20.1817677172
  C        12.5708283847        1.9295339336       20.9528660707
  C        10.1032340014        8.1407228003       16.9372870606
  C        10.4510866442        5.8917656389       15.8663130329
  H         3.0612214359        4.1531285076       29.1040817559
  H         3.4692316202        5.7736255792       28.7254214684
  C         1.9638532282        5.5700053121       30.2769924907
  H         4.7003896038       -1.1943346774       32.2374529513
  C         4.5659079392        0.2775870413       33.5989567881
  H         5.3053299473        0.9847797659       19.1104528318
  H         5.8089622796        1.9324885318       17.7169839228
  C         3.9732113523        2.5682504102       18.2307613763
  H        12.5413834362        1.3992693212       21.9390039853
  H        12.5205685304        1.2014804020       20.1020863082
  C        13.7975807677        2.8326391425       20.8650718430
  N         9.8884548663        9.0424082043       18.0185237698
  C        10.5784242533        8.6966019214       15.8173686828
  C        10.8208016093        6.4877146195       14.6900900981
  H        10.5077155632        4.7656100639       15.8109003594
  H         1.2370320105        4.8453972222       30.6257386351
  H         2.6944469044        5.7499625172       31.0501039052
  H         1.4277299429        6.5563295473       30.2164361638
  S         4.3595175797        1.9272238943       34.0267226419
  C         4.4872858846       -0.8066565277       34.6453056677
  H         3.6405275275        3.1507212753       19.0419425219
  H         4.1603796054        3.1402032912       17.3301239174
  C         2.8595462234        1.5414008855       17.8481075031
  H        13.6933941946        3.7028019399       20.1996690902
  H        14.5502515147        2.2461474518       20.3219589428
  C        14.3128447660        3.3293929552       22.2490524314
  S        10.0960727289       10.5183283757       17.4176856535
  N        10.5504565155       10.0819505890       15.8992821981
  C        11.0179652352        7.9522420551       14.6109233487
  H        10.9263151760        5.7941208073       13.8783207438
  C         4.1747890757        1.2203679453       35.6742044507
  N         4.1513934913       -0.1495599842       35.7341386345
  O         4.4846344996       -2.0551867880       34.4825695822
  H         2.1965031187        2.0603252636       17.1674943752
  H         2.4062066104        1.1022568038       18.7911565938
  C         3.3728960350        0.2948787147       17.0486270166
  H        14.9813058879        4.1223639978       21.8621777369
  H        13.4568676797        3.7942904822       22.8012128893
  C        15.0298923456        2.3408119304       23.1483781182
  C        11.3616136712        8.7337601177       13.5017540985
  S         4.0108813179        2.0852994624       37.2225429621
  C         3.8750161742       -0.9069289311       36.9567671036
  H         3.6230941307        0.5872587707       16.0633320904
  H         4.3282347088       -0.1659269654       17.3978947309
  C         2.2565013493       -0.7534289601       16.8992773323
  H        14.8032935096        1.3297233562       22.6997878947
  H        14.5321142541        2.4093342863       24.0951648040
  C        16.5138962694        2.5212835450       23.3030987117
  H        11.1059397769        9.7615723350       13.5540420132
  C        11.7343007251        8.2914064682       12.2565721811
  H         3.2450175786       -0.3144095001       37.6682438278
  H         3.3303554994       -1.7990498156       36.7443817505
  C         5.2242284276       -1.1661437155       37.5917455488
  H         2.6574185554       -1.5033765634       16.2069368015
  H         1.3396084354       -0.3808432176       16.3862218251
  C         1.7512830957       -1.3724267115       18.1713186637
  H        16.8869598117        3.5707176973       23.3740058925
  H        16.7004140932        1.9986333655       24.2621207355
  C        17.2046167776        1.9143465666       22.0948572912
  S        12.1640411593        6.6956374995       11.8544441544
  C        11.8065617582        9.3046657551       11.1281271474
  H         5.4413757929       -0.4249558457       38.3317792924
  H         4.9882218108       -1.9662386340       38.2270204832
  H         6.0938523471       -1.4315010058       37.0287898392
  H         1.5673936570       -2.3983686303       18.0243144998
  H         0.8459540865       -0.7888065824       18.4681356703
  H         2.6120401200       -1.3053945493       18.8569991567
  H        16.6747344800        0.9667992858       21.9667409002
  H        18.2755777320        1.8948829314       22.1827537950
  H        17.0192978362        2.6362458059       21.2405151716
  C        12.3587463045        7.3194576317       10.1931043814
  N        12.2120940643        8.6751997971       10.0128485803
  O        11.5902399805       10.5356543385       11.1175885628
  S        12.8979669304        6.4880169049        8.8204849933
  C        12.3348536647        9.3335567698        8.7355440813
  H        12.3529562155       10.4171870747        8.7805139305
  H        13.2465185939        9.1374946226        8.1684192074
  C        11.0789577041        9.0612944504        7.9444147140
  H        11.1314969499        8.0047171673        7.5800175456
  H        10.1546202245        9.0458439210        8.4822889274
  H        10.9966029743        9.7809428792        7.0573142944
  H        23.6774765974       11.5614449792        4.1416338770
  C        22.8865215601       10.9725547490        3.6486749877
  H        22.0810184108       11.7072291628        3.5557846796
  C        22.4596183691        9.8586116224        4.5181578044
  C        23.2487299614       10.4236934963        2.2864830572
  C        21.6369324862       10.3842835553        5.7050566237
  H        21.7921584271        9.1593888971        4.0041393489
  H        23.3113545550        9.2518574917        4.8472401366
  H        23.8337713197       11.2472502790        1.8289107826
  H        22.3087064371       10.2282049973        1.8362119347
  H        23.7885484643        9.4595375236        2.2459070563
  C        21.0168537993        9.2772488891        6.5201368989
  H        22.2914313086       10.9102332457        6.4235319584
  H        20.8411698267       11.1014405134        5.3585314640
  C        20.4982118810        9.7437932624        7.8381470387
  H        21.7421935874        8.5360055784        6.7298480854
  H        20.2505510449        8.8984830592        5.9700969302
  C        19.3150030929       10.6831832684        7.6998046629
  H        21.3154393739       10.1645731681        8.4630514003
  H        20.0752550134        8.8845764651        8.3522493499
  C        18.0465708562       10.0039907768        7.1574538882
  H        19.0975642612       11.0705284910        8.6886770259
  H        19.6210234604       11.5571836413        7.1606301158
  C        16.7656142603       10.8560500948        6.9199996044
  H        17.7584558133        9.1315322849        7.8111548743
  H        18.2857757337        9.5871095109        6.2162350009
  C        17.1704246433       12.1922288226        6.2011866111
  C        16.3269938596       11.6472669664        8.0925554511
  C        15.5198400788       10.0245067543        6.3510830861
  C        16.8876395690       13.3041055242        6.9694595725
  C        17.7182892233       12.4971632519        4.9989517132
  C        16.2833054237       12.9792381507        8.1874719390
  C        15.7933018432       10.9861736404        9.1769654734
  H        15.7927330009        9.6568524842        5.3705466611
  H        15.3891267813        9.0619272741        6.9322347533
  C        14.2454370867       10.8686782803        6.2024769610
  S        17.2796817561       14.8158197658        6.1179728412
  C        17.7804237817       13.8506269348        4.7546636943
  H        17.9923844251       11.6758246725        4.3780859092
  C        15.7147417300       13.5814215912        9.2999106089
  H        15.7366442249        9.9516873579        9.1916134547
  C        15.3567406214       11.5689110524       10.3404294270
  H        14.4766121245       11.8675010368        5.7548331130
  H        13.9084131381       11.0940221153        7.1879363360
  C        13.1817178302       10.0478165988        5.3993138796
  C        18.3042244499       14.5566380587        3.5382085614
  C        15.3611413400       12.9002335390       10.4116298177
  H        15.6992335465       14.6851762201        9.3553068954
  C        15.0203751756       11.1728363802       11.6015496976
  H        12.1701703582       10.4734223542        5.5751650452
  H        13.2932732961        9.1104492790        5.9614666534
  C        13.3295089214        9.8805174619        3.8601592185
  C        18.3464350652       15.9670372755        3.1765160670
  C        18.8025747864       13.6626981797        2.4441134441
  C        15.0352263081       13.6278693921       11.6520300537
  C        14.8422457619       12.2669695077       12.4187706485
  S        14.8338875183        9.6392807921       12.5192005441
  H        13.8544973826        9.0095856690        3.5739295869
  H        13.9489813717       10.6526705219        3.4915458227
  C        11.9430230312        9.9159514558        3.2102581802
  N        17.8687972957       16.9991818262        4.0401059880
  C        18.6770161644       16.4282395029        1.9124012917
  C        19.1810020721       14.1460196702        1.1667148984
  H        18.8000267096       12.5675364429        2.5551912733
  C        13.7695292367       14.5241615211       11.5646637132
  C        16.2589045319       14.3470318319       12.1643928761
  C        14.4262527959       11.8778707075       13.7370674302
  C        14.4687299083       10.5492325457       14.0028995195
  H        11.2423894852        9.2533964712        3.6747922118
  H        11.6050218062       10.9464040987        3.4881019493
  C        11.9174335195        9.7368051032        1.7572456854
  S        17.9098812384       18.3893805540        3.1377607583
  N        18.5689494767       17.8004323753        1.7732374486
  C        19.0998739338       15.5795891745        0.8372460576
  H        19.4313039196       13.4063224490        0.3714118005
  H        14.0811738104       15.3326864353       10.9101406435
  H        13.5710276678       14.9426061267       12.5819719720
  C        12.5860969264       13.6479523333       11.0623967096
  H        16.6591325358       14.8707290098       11.2851705609
  H        15.9706720327       15.1299391581       12.9013979443
  C        17.4008122446       13.4240020132       12.8405589025
  H        14.1891907601       12.6920684500       14.4399598884
  C        14.1623900183        9.7915981939       15.2597878958
  H        11.0475291388       10.2391521282        1.4794349637
  H        11.7293167363        8.7328209091        1.4531028238
  C        13.1390698284       10.2673225091        0.9472460251
  C        19.3931966969       16.2004241883       -0.4503462935
  H        12.8763060592       12.9167790387       10.2771131816
  H        12.2300780350       13.1170097872       12.0156263227
  C        11.4493097785       14.5299828572       10.7167432534
  H        17.8991316030       12.8674115935       12.0857213623
  H        16.9254365486       12.8475990015       13.5999018692
  C        18.4151450192       14.4119198472       13.5517453831
  C        14.1694069164        8.3857122339       15.4746438075
  C        13.9173408447       10.6005828160       16.5279080955
  H        13.5711720549       11.1793648668        1.3946272451
  H        13.8423982147        9.4475898797        1.0615982690
  C        12.8084599804       10.5468988138       -0.5578759829
  H        19.3012000472       17.2727719782       -0.4281826827
  C        19.6028375473       15.7479284653       -1.7510733190
  H        11.8298450193       15.2603053846        9.9620681643
  H        11.3541332911       15.1489095076       11.6068236832
  C        10.2547646910       13.6559689942       10.3913342978
  H        18.6506299608       15.2897802817       12.9464128802
  H        18.0071069031       14.7628588265       14.4173086106
  C        19.7449142131       13.6477115119       14.0019243399
  N        14.4249155857        7.3960696896       14.5161248899
  C        13.8284629423        7.7957404188       16.6902245278
  C        13.7288699270       10.0179505911       17.7095978674
  H        13.9295928184       11.6479303307       16.5820647556
  H        13.6901506543       10.9971753438       -1.0275835977
  H        12.0050112976       11.2945113488       -0.6833480580
  H        12.5618134945        9.6664052624       -1.2118854200
  S        19.6540476859       14.1617396766       -2.2384778485
  C        19.5728265038       16.7263258927       -2.8070979002
  H        10.5589275929       12.7260454090       10.1067582946
  H         9.8022978195       13.4143304790       11.3666155266
  C         9.1293148424       14.4251560602        9.7463459607
  H        19.8515172804       12.7221273740       13.3752077256
  H        19.5831172033       13.3906134434       15.0589755828
  C        20.8443589455       14.5489981417       13.8230247104
  S        14.0675485750        5.9478511582       15.1548219951
  N        13.6142756906        6.4047252828       16.6529668740
  C        13.5846117890        8.5608049590       17.8048108434
  H        13.5938735523       10.7035505187       18.5124373709
  C        19.8341549472       14.8571826789       -3.8865799957
  N        19.7953399686       16.1711438447       -3.9828723945
  O        19.4969429998       17.9473095585       -2.6864150145
  H         8.4644722208       14.8352180828       10.4607568114
  H         9.5680109610       15.2105891384        9.1562480613
  C         8.2243830247       13.4065102798        8.9694568186
  H        21.7384186055       13.9281127202       13.7265054173
  H        20.7894382113       15.1378760321       12.8913702207
  C        21.2294992088       15.4846952846       14.9766174631
  C        13.3078145961        7.7574646433       18.9912455440
  S        20.2677662520       13.9428229369       -5.2870392525
  C        19.6910521428       16.9194148852       -5.2551867074
  H         8.7633642051       13.0195808671        8.0669638245
  H         8.0445221952       12.5491079392        9.5979785265
  C         6.8333493838       14.0363373978        8.5618933905
  H        21.7275712565       14.9453517734       15.7355696136
  H        20.2760834178       15.7747091217       15.4192595857
  C        22.1188490116       16.6834626381       14.4907655106
  H        13.4825813044        6.6490979419       18.9830338876
  C        12.7080431174        8.1664211601       20.1912409553
  H        20.2847869220       16.5611080297       -6.0218108243
  H        20.2462960264       17.8639517401       -5.0691561130
  C        18.1835743338       17.2032871046       -5.6532987868
  H         6.4869353987       13.6141832931        7.6097431393
  H         7.0112339364       15.0691936600        8.3336670273
  C         5.8389350907       13.9221437753        9.7369251222
  H        23.1235017155       16.3194770678       14.2542227529
  H        21.6576652020       17.1235192886       13.6189547194
  C        22.1783135107       17.7740910725       15.6295452558
  S        12.1889476299        9.7369778260       20.6349408961
  C        12.5079388553        7.0988019128       21.1715934663
  H        17.5759702490       16.2816570913       -5.8373337771
  H        18.0509448769       17.7894188030       -6.5839153380
  H        17.6115773786       17.7443777035       -4.8826295799
  H         6.2342828451       14.4710516627       10.6647718960
  H         4.8747806077       14.3362523130        9.5466646686
  H         5.6435477158       12.8907126198        9.9770602416
  H        22.8163121730       17.5220102325       16.4594310180
  H        22.5206757212       18.7019548493       15.2157696102
  H        21.1741911431       17.9915260610       15.8981043476
  C        11.5744844048        9.0113384450       22.1195870859
  N        11.8742535839        7.6879797358       22.2492695257
  O        12.9707518640        5.9963994236       21.1199378366
  S        10.6837630339        9.9295934099       23.3962999521
  C        11.6195096731        6.8316608415       23.4380044765
  H        11.3080586506        5.8616007777       23.0948645070
  H        10.7151073000        7.2833598443       23.8022411711
  C        12.7998305960        6.8676177074       24.4199714774
  H        12.9682656794        5.9022865261       24.9002177377
  H        12.7360989788        7.5236814006       25.2826397330
  H        13.7434745434        7.1153757614       24.0030235834
