352
 i =    57800, time =    57800.000, E =        24.9088051907
  H        10.3562102238        4.6727145770       31.7344656245
  C        10.6986834370        5.6134065844       32.0488124725
  H         9.8184545952        6.0260072483       32.4416073225
  C        11.2844831039        6.6162034590       31.0427932068
  C        11.6570333821        5.4236148468       33.1987654674
  C        11.3138670807        5.8834540110       29.6882027078
  H        10.6842266292        7.5227944052       31.0309919493
  H        12.3025125537        6.7928878269       31.3168242433
  H        12.5641224242        4.8809727263       32.8288566845
  H        11.8742182900        6.3549790068       33.7408636348
  H        11.2381823694        4.7252281877       33.9651413876
  C        10.2972924180        6.3619175925       28.7151305392
  H        11.2172340615        4.8209090314       29.7911173603
  H        12.3166603271        6.1162681248       29.2516907631
  C        10.6680981782        5.7088974861       27.3977028034
  H         9.3093510408        5.9715653182       29.0017436857
  H        10.1960549018        7.4237241433       28.6954215107
  C         9.5587897010        4.9153193919       26.7615835025
  H        11.5784827517        5.0362955331       27.4810831443
  H        11.0237799605        6.5064470990       26.7353132014
  C         8.3384918084        5.7443227099       26.2627763801
  H         9.9932177681        4.4049729281       25.9116869433
  H         9.2698475554        4.1477956245       27.4367709637
  C         7.3561417186        4.9313840974       25.3695957491
  H         7.8107703518        6.3428212145       27.0180415450
  H         8.7433419585        6.5048001715       25.5841101751
  C         7.0276883838        3.5679221070       26.0463037208
  C         7.9744653522        4.0731715338       24.1961456315
  C         6.2253211371        5.7233664312       24.7632464774
  C         7.4062669174        2.4679772460       25.3267920545
  C         6.4688881992        3.2216679184       27.2867146301
  C         8.0561519516        2.7506428039       24.1546720783
  C         8.3336098564        4.6900741441       23.0106180619
  H         5.7393938318        5.1512982592       23.9929915001
  H         6.6112987174        6.6417539410       24.3108893302
  C         5.1801085280        6.0730334012       25.7945520209
  S         6.8388959494        1.0741370749       26.0981289862
  C         6.3538651321        1.8750333314       27.4442633214
  H         6.1598812832        3.9806045808       27.9343512681
  C         8.3312705019        2.0843213515       22.9448355879
  H         8.0938438227        5.7300850090       22.9678645490
  C         8.6820989639        4.1159939476       21.7997939210
  H         5.2695348861        5.3205172194       26.5554356858
  H         5.4107558417        6.9993513783       26.3666929700
  C         3.8512057050        6.1693859396       25.1474749418
  C         5.9571991045        1.1528855629       28.7117296463
  C         8.7295792057        2.7527190141       21.7713276256
  H         8.1758619531        1.0025411507       22.9881398289
  C         9.1361080131        4.5301270828       20.5868094904
  H         3.5789690005        5.1975319717       24.7128293822
  H         3.7494768602        6.7843016271       24.2844047589
  C         2.7947579807        6.4162119140       26.3149386982
  C         5.9731822660       -0.3116871019       28.9033805589
  C         5.5364382703        1.9258116506       29.9594588794
  C         9.1079536331        2.0987372316       20.5022469007
  C         9.2770111076        3.4167916114       19.7700678734
  S         9.4609584502        6.0644496594       19.8436601488
  H         1.9712864696        7.0217473552       25.9292152289
  H         3.1645488486        7.0627005799       27.0968454360
  C         2.3362106423        5.0496650752       26.8586783017
  N         6.3871011754       -1.2453637369       27.9269843423
  C         5.7014198910       -0.9513957246       30.0907981683
  C         5.1317006364        1.2240919350       31.0989246061
  H         5.4113577905        2.9857510764       29.7985709390
  C         7.8741460496        1.2707313173       19.9320014967
  C        10.3581157637        1.2253405575       20.4680139296
  C         9.6442195212        3.8099531726       18.4580437029
  C         9.7952130888        5.1725919557       18.3550145010
  H         1.5945906264        4.6975644406       26.0974944033
  H         3.1331089824        4.2888837962       26.8427435087
  C         1.6876152348        5.1356326834       28.2904406649
  S         6.2690082816       -2.7491707100       28.4997281341
  N         5.8058193785       -2.3634974821       30.0092296385
  C         5.3296470632       -0.2394315595       31.2431335944
  H         4.8436369509        1.7693781668       31.9144520286
  H         7.4352453427        0.5391456434       20.6021597074
  H         8.0875543947        0.7738356486       18.9482149319
  C         6.7106850837        2.1769908891       19.4657910959
  H        10.3094524554        0.7456240260       19.4714969523
  H        10.1915695705        0.4092940373       21.1093674872
  C        11.6388353182        1.9859573700       20.8241200973
  H         9.7604450297        3.0933199044       17.7040967900
  C        10.2601425737        5.9023208107       17.1073073276
  H         1.0732518523        4.2494256004       28.3881694032
  H         1.0156534187        5.9691767020       28.3707899206
  C         2.7690560528        4.9522379395       29.4009764475
  C         4.9760235185       -0.9763844122       32.4795810185
  H         7.1578062000        2.8169678888       18.6560374295
  H         6.4698699573        2.8974751511       20.2352341988
  C         5.5178982728        1.4436485562       18.9015666338
  H        11.5262931833        2.5077109400       21.7531993460
  H        11.7513149759        2.8286191179       20.2026369369
  C        12.9053763597        1.0614520391       20.7419646379
  C        10.1969983923        7.3747188285       17.0097879466
  C        10.6445167739        5.1909871013       15.8037071266
  H         3.4197513558        4.1152398631       29.1098559125
  H         3.3957653740        5.8005525287       29.3917862394
  C         2.2670390441        4.9096159602       30.9400732977
  H         4.7453206476       -1.9818936073       32.3708932676
  C         4.7252611543       -0.5580654171       33.7662600010
  H         4.9026209684        0.9241046539       19.5931585389
  H         5.9686705495        0.7429990126       18.2169370498
  C         4.7808165138        2.3778697896       18.0082186418
  H        12.8591918103        0.2149726102       21.4315905009
  H        12.9178796733        0.6439884412       19.6939665380
  C        14.2349529579        1.7711203948       21.0945427112
  N         9.8190196419        8.3413498987       18.0091606896
  C        10.6457615952        8.0118000689       15.8360855498
  C        11.0320025599        5.9220789978       14.6702728107
  H        10.5313737008        4.1120555084       15.7460334063
  H         1.2962563757        4.5248167477       30.9578196986
  H         2.8975462356        4.3832130218       31.7306030658
  H         2.1659303163        5.9658066944       31.2260418080
  S         4.7282042871        1.0747098934       34.4423289055
  C         4.6839862494       -1.6240399868       34.7784878430
  H         4.7798934547        3.4039887189       18.4479020564
  H         5.2542201223        2.5835229773       17.1177178049
  C         3.3260131337        1.9707587105       17.5505423199
  H        14.5040170714        2.6004138409       20.4410045700
  H        14.9223544234        0.9741701297       20.8522060030
  C        14.2888615649        2.0886367291       22.6264037029
  S        10.1206473794        9.8156707926       17.4718829684
  N        10.6555493418        9.4135185998       16.0276407709
  C        11.0432201253        7.3651212524       14.6822589299
  H        11.3928495483        5.4528605697       13.7822847174
  C         4.4254947267        0.2167519238       36.0276685258
  N         4.4748565420       -1.1493521210       36.0103093271
  O         4.9967836684       -2.7749076290       34.4807700415
  H         2.9673951590        2.6126150407       16.7470180769
  H         2.6694200088        2.2257045655       18.3760893666
  C         3.2542991145        0.4782668153       17.1473738890
  H        13.5615996872        2.8039090135       22.9443317154
  H        13.9840170808        1.1770292979       23.2145620158
  C        15.6518702394        2.7946079089       22.9359541970
  C        11.2165220443        8.1776220148       13.4975354390
  S         4.3480560725        1.0841303407       37.5869711439
  C         4.7518568676       -1.8228903763       37.2328365672
  H         2.9376466277        0.2773231047       16.1180418184
  H         4.3221024856       -0.0419821679       17.1421939381
  C         2.2472420652       -0.2733017806       18.0755860285
  H        15.6017494389        3.1943456810       23.9376723053
  H        15.6639669438        3.6822826517       22.2906805929
  C        16.8737455911        1.9203096987       22.7458202014
  H        10.9091389804        9.1533528968       13.5874457790
  C        11.6443904541        7.9502896438       12.2234163929
  H         4.0379982829       -1.5105572624       37.9670951425
  H         4.4334510978       -2.7856700163       36.9398272754
  C         6.2067790608       -1.7759075614       37.7579561172
  H         1.2883602758        0.2525789403       18.1764309909
  H         2.5680911796       -0.6158855780       19.0637745640
  C         1.8679348613       -1.5508464632       17.2822162515
  H        16.8940225776        1.2969643457       23.6626239041
  H        16.7800531380        1.3092131161       21.9229624453
  C        18.2073819517        2.5246344372       22.6769504425
  S        12.0942792048        6.4792675840       11.5994134257
  C        11.8115471146        9.1549268705       11.3438039687
  H         6.7383242041       -2.3365871176       36.9887200043
  H         6.5980465060       -0.7814348065       37.8051458802
  H         6.3679645752       -2.3702262165       38.6544314048
  H         2.6420569781       -2.1974977070       16.9447515042
  H         1.2149613463       -1.3504435475       16.4284717053
  H         1.3101292676       -2.1811408660       17.9168826965
  H        18.2522236737        3.5446136653       22.2760732192
  H        18.8515256445        1.9629977555       22.0055892514
  H        18.5780469644        2.5371967574       23.6428197030
  C        12.4351801936        7.3321726836       10.1178425902
  N        12.2212986220        8.7078777405       10.1922510022
  O        11.5012234013       10.2954961390       11.6146528732
  S        12.8851718358        6.6977840502        8.5524099737
  C        12.1854287034        9.6437739441        9.0707374418
  H        12.3612851512       10.6185525176        9.4486393456
  H        12.9618652057        9.4066028848        8.3914652930
  C        10.8275334649        9.5225967037        8.3368178221
  H        10.7526824079       10.3885652392        7.7580632852
  H        10.7120716144        8.6423176166        7.6905722790
  H        10.0511180567        9.4614784239        9.0366492558
  H        21.0266146098        8.6262545856        3.4894919300
  C        21.7495537693        9.3772245012        3.2738168703
  H        22.4556998307        8.9586003339        2.6938515805
  C        22.4822093018       10.0647585003        4.5013788847
  C        21.1512719567       10.5359692477        2.4248535754
  C        21.4409789627       10.4876652537        5.5501867396
  H        23.2039207701        9.4489677080        4.9184846082
  H        23.0055351074       10.9467049900        4.1365719629
  H        21.2119403681       11.5252498093        2.8942103565
  H        20.1134350564       10.2630454766        1.9452469400
  H        21.7607772216       10.6755044312        1.5274320886
  C        20.7417736698        9.2476156096        6.1376481237
  H        21.8304549468       11.2273717945        6.2422451568
  H        20.5752639646       10.9640200534        5.0844857297
  C        20.1370455149        9.4879844637        7.5893474723
  H        21.4618999646        8.3903046126        6.2435999865
  H        19.9670244088        8.9328175505        5.4827183095
  C        18.8552451476       10.3316871291        7.6966549917
  H        20.8950245062        9.9680355035        8.1421458385
  H        19.9775890520        8.5880533648        8.0817918693
  C        17.5722526129        9.6775650251        7.0746579108
  H        18.6485441361       10.6731642448        8.7673102893
  H        19.0049639835       11.2398719371        7.1255514144
  C        16.4161435741       10.6715110617        6.9712294424
  H        17.3230161085        8.7594189118        7.5218122391
  H        17.7452404417        9.3264553601        6.0131725260
  C        16.7859956378       12.0131578116        6.3007808904
  C        16.1906415304       11.3738425940        8.2676620456
  C        15.1844247178       10.0550805469        6.3329570483
  C        16.7243194373       13.1118446988        7.1639102879
  C        17.1743360263       12.3990912431        4.9901728697
  C        16.3136377863       12.7187335815        8.4175485337
  C        15.8702780002       10.7356875817        9.4578204596
  H        15.5998248051        9.6066420363        5.4329848836
  H        14.8403506261        9.2841353073        6.9296914103
  C        14.1151629998       11.1478418650        5.9735589576
  S        17.1677931029       14.6218334113        6.4378456149
  C        17.3650555603       13.7536306348        4.8946461509
  H        17.2593034433       11.6394300345        4.1978100756
  C        16.0291815297       13.2607849697        9.6047936482
  H        15.8483174208        9.6586890497        9.3500853372
  C        15.6279674706       11.2994307196       10.7079574966
  H        14.4870393793       12.0655629386        5.5082437405
  H        13.6140491818       11.4962675210        6.8645340616
  C        13.0878863350       10.2986868635        5.1385887970
  C        17.8747147969       14.4074340021        3.6650332227
  C        15.7077952161       12.5980596864       10.7868721775
  H        16.0322934396       14.3349482667        9.7164488471
  C        15.2092793455       10.9294340588       11.9968360617
  H        12.1647117684       10.7678797432        5.3433468646
  H        12.9726584592        9.1890107064        5.4782744462
  C        13.4606589320       10.4155857677        3.6463815650
  C        18.0017451046       15.8014140266        3.4611246983
  C        18.1867237033       13.5636861230        2.4589001948
  C        15.3415324856       13.3092367402       12.0701525567
  C        15.0026209111       12.0071820455       12.7858956663
  S        14.8282660296        9.4281569820       12.7757098290
  H        14.3291582776        9.9495359964        3.4447983399
  H        13.5671545436       11.4647086616        3.2454807512
  C        12.3378133659        9.8505941310        2.6724105465
  N        17.8277268139       16.7919161301        4.4143828185
  C        18.2677275286       16.3469734741        2.2420365610
  C        18.5014684361       14.1688006032        1.2444585234
  H        18.3277669930       12.5189548492        2.6064063930
  C        14.0925623627       14.1314654526       11.9465283190
  C        16.5619868676       14.1289786194       12.6130329665
  C        14.6583574217       11.6722736871       14.1193037413
  C        14.5766229054       10.3053483061       14.2937870021
  H        11.7857054634        9.1631833998        3.2498077894
  H        11.5277233499       10.5913484475        2.3985691903
  C        12.7531255410        9.0281411307        1.4619081329
  S        17.8754747529       18.2568973255        3.7545735814
  N        18.1847562765       17.7486539104        2.2030695594
  C        18.5409021060       15.5939059889        1.0849097523
  H        18.8363744476       13.4327259902        0.5414352001
  H        14.1869263805       14.9536307663       11.2908767446
  H        13.7342259448       14.5922614323       12.9216234434
  C        12.9309058184       13.4135227697       11.3422983257
  H        16.8423627711       15.0158504149       12.0536425602
  H        16.2556844892       14.4560016004       13.5543913527
  C        17.7024726949       13.1811081914       13.0231916712
  H        14.4673710745       12.4379940743       14.8583100804
  C        14.2918669567        9.5550440653       15.5430179392
  H        11.9469158854        8.4250481381        0.9547731475
  H        13.4436607824        8.2724934074        1.8195943901
  C        13.5563356714        9.9660312437        0.5283018009
  C        18.7965834508       16.3367686317       -0.0925755661
  H        13.2006353878       13.0019919152       10.3532812936
  H        12.6221163495       12.6962890484       12.0922679616
  C        11.6994840218       14.3427683756       11.1493811000
  H        18.1194384960       12.6558102113       12.1399308253
  H        17.3853972844       12.4178092460       13.6978382419
  C        18.9617446650       13.9071094043       13.6291222206
  C        14.2870141031        8.1617060377       15.6225292855
  C        13.8349432061       10.3122065734       16.7156459511
  H        13.9449069815       10.8557739846        0.9409398602
  H        14.5182192467        9.5420034099        0.3205148687
  C        12.8574009085       10.3352789412       -0.7941807117
  H        18.6618178002       17.4478390104       -0.1121480273
  C        19.1663252223       15.9630306812       -1.3930250077
  H        11.8142682102       15.0364750258       10.3672581578
  H        11.5020832719       14.9177475424       12.0980078768
  C        10.5312132513       13.3956427876       10.6980105501
  H        18.9608231998       14.8312496836       13.2150603029
  H        18.8479103941       14.0732654044       14.7159253545
  C        20.2560170383       13.1617356451       13.4363440281
  N        14.6033116110        7.2874009621       14.6213529330
  C        13.8698043631        7.4487912406       16.7278408995
  C        13.4304729537        9.6085468163       17.8559327018
  H        13.8753987094       11.3953588380       16.7242298547
  H        12.9201733577        9.5342798913       -1.5378833481
  H        13.4450467728       11.1682508671       -1.2583546050
  H        11.8295769041       10.5576929540       -0.7322750720
  S        19.4977092233       14.3644873674       -1.8934202403
  C        19.1980770588       16.9830992991       -2.4263130685
  H        10.9208765080       12.6478608346       10.0064619123
  H        10.1774869055       12.8328192205       11.5382097508
  C         9.3448486043       14.1648614574       10.0687638430
  H        20.4054308941       12.7670184949       12.4238406982
  H        20.3841888201       12.3451870114       14.0633559936
  C        21.3738282522       14.2406880070       13.6126530377
  S        14.6362100050        5.7771743865       15.2023111833
  N        13.8305727392        6.1164539672       16.5094029402
  C        13.4061781997        8.1145843826       17.8778413310
  H        13.2650735336       10.2091681541       18.7026196368
  C        19.7021501244       15.1570379730       -3.5048576091
  N        19.5427623915       16.4616668703       -3.5921840467
  O        18.8626632270       18.1283695016       -2.2943761039
  H         8.8667692692       14.8599996016       10.8195095438
  H         9.6577364089       14.7955139616        9.2292754768
  C         8.2410256392       13.2135940555        9.5368432178
  H        22.3239953941       13.8710703234       13.1036356133
  H        21.0052513434       15.1641278517       13.1710313448
  C        21.7296194637       14.5798138465       15.0177369176
  C        13.0371055762        7.2674605254       18.9836590336
  S        20.1130787174       14.2540582543       -4.9396213282
  C        19.5470923599       17.1532297289       -4.9276716999
  H         8.6541197018       12.5485818327        8.7702160910
  H         7.9968111555       12.5614232188       10.3736007379
  C         6.9919313303       13.9622747142        9.0055394661
  H        22.7927277730       14.5840500569       15.1200857842
  H        21.3501010623       13.7532746943       15.6603503676
  C        21.3023192073       15.9669085636       15.5500918107
  H        13.3169746580        6.2566920622       18.8363605271
  C        12.3930434457        7.5611517533       20.1706898127
  H        20.2796257448       16.9006030555       -5.6595275021
  H        19.8275362951       18.2086376641       -4.7872764196
  C        18.1865687566       17.0712713453       -5.5770616036
  H         6.7635616100       13.4865109137        8.1031511012
  H         7.1419945867       15.0086059351        8.7480086719
  C         5.9615319563       14.0778767429       10.0732924854
  H        20.4410194979       16.2578129817       15.0239100169
  H        20.8303725950       16.0154242583       16.5469359889
  C        22.4344909024       17.0403058269       15.2731594634
  S        11.6599467881        9.0435953840       20.8557765860
  C        12.3964038951        6.4504733064       21.1523594200
  H        18.0592247967       17.8739273748       -6.3007796199
  H        17.4136113879       17.1550950072       -4.8612201084
  H        18.0320755218       16.1527964178       -6.1143788947
  H         6.2557614831       14.5074527980       11.0580228816
  H         5.2118742237       14.8369234023        9.6853343751
  H         5.4105207721       13.1245536409       10.3683082973
  H        22.5161405403       17.1829216671       14.2408552075
  H        22.3661596810       18.0347286216       15.7520990218
  H        23.3707543358       16.6247132482       15.5704590317
  C        11.4306742003        8.1211624101       22.2696605106
  N        11.8057882500        6.8058966243       22.2917559507
  O        12.8458390749        5.2766318191       21.0121434926
  S        10.6452781556        8.7670328127       23.7201262287
  C        11.8848309377        6.1425171986       23.5500209307
  H        11.7822966545        5.1798094570       23.1349561569
  H        11.1106659721        6.3094530925       24.2915911413
  C        13.2584834505        6.3270011758       24.1691661979
  H        14.0724603320        5.8832785568       23.6070784928
  H        13.3226723184        5.9873289986       25.2697210062
  H        13.5899802492        7.3165088090       24.3973530070
