352
 i =    82400, time =    82400.000, E =        25.4266156228
  H        10.0214194246        6.3428358016       32.0772396471
  C        11.0864335563        6.1701336618       32.3249488148
  H        11.2704150456        7.1655023882       32.7803319995
  C        11.9630697513        6.1035430471       31.0910391802
  C        11.1923502987        5.0130650310       33.3183700017
  C        11.2781193097        5.3015265962       30.0937044810
  H        12.1221517323        7.0765946275       30.8154081630
  H        12.8939352797        5.6821520587       31.4123484686
  H        12.2076445058        4.5815075515       33.2851196932
  H        10.9018658606        5.3969970736       34.3225822776
  H        10.5278789554        4.1431800637       33.0983941520
  C        10.4094700899        6.1535782016       29.1138974560
  H        10.7230304174        4.5735285240       30.6744391984
  H        11.9339668397        4.7270127580       29.4635645411
  C        10.8087379465        6.1204602462       27.6220627851
  H         9.3344523628        5.7973836433       29.1808183179
  H        10.4023779565        7.1058190621       29.4492421421
  C         9.9093205476        5.2611097268       26.7033011916
  H        11.8756226226        5.7775581803       27.4969777323
  H        10.7871380244        7.1393980018       27.3264418032
  C         8.6108667015        5.9438913667       26.2832578020
  H        10.4968187011        5.0394595282       25.8453192633
  H         9.8595972554        4.2606230105       27.0992158588
  C         7.6247059004        5.1567749601       25.4250703265
  H         8.0586997682        6.3341932238       27.2020413619
  H         8.8598477294        6.8266075188       25.7231400120
  C         7.3278391460        3.7348080362       26.1033067683
  C         8.1187217910        4.4590114918       24.1686087354
  C         6.2617237895        5.8954508820       24.9532396110
  C         7.5033437431        2.7051036786       25.2107263543
  C         7.0083520881        3.2711844616       27.3540701999
  C         7.9794861656        3.0893521910       24.0292914470
  C         8.6373011632        5.1109008816       23.0749779464
  H         5.8422697615        5.4034913646       24.0395663678
  H         6.5333022774        6.9048646627       24.5798112661
  C         5.1244415218        5.9942412767       26.0024889494
  S         6.9456690260        1.1882918882       25.8159425121
  C         6.7289349475        1.9551901099       27.3257878664
  H         6.9814711723        3.8970945037       28.1808763147
  C         8.4674572729        2.5090815307       22.8772109535
  H         8.5844553318        6.1791673141       23.0935362124
  C         9.0074381502        4.5285975960       21.9099793990
  H         5.2304750331        5.0977731568       26.6241020071
  H         5.3028516102        6.8138337194       26.6996199636
  C         3.7010266406        6.0776460983       25.4355656902
  C         6.3879902695        1.2071392810       28.5674743318
  C         8.9524584733        3.1725776860       21.7567099129
  H         8.3017525482        1.4380355048       22.8024976829
  C         9.3807756666        4.9193625379       20.6726495836
  H         3.4614218752        5.2168753871       24.8389180620
  H         3.6240657114        6.9035211153       24.7420751463
  C         2.6540592557        6.1635648494       26.5072821069
  C         6.2884117578       -0.2028344574       28.7521369847
  C         5.7432183907        1.9801718926       29.6813392547
  C         9.2941519487        2.5067343441       20.4445173379
  C         9.6063138875        3.8857990227       19.7898308985
  S         9.6875797917        6.4738309155       19.9039591170
  H         1.8109624991        6.6014987124       25.9605290777
  H         3.0880077995        6.9103149285       27.1696426280
  C         2.3855865653        4.7928351893       27.3403775505
  N         6.7339228327       -1.1323571405       27.7967782072
  C         5.8345771187       -0.7347171982       29.9439838236
  C         5.2024365085        1.4325669246       30.8771227405
  H         5.6049734575        3.0567962867       29.5142016927
  C         8.0561693264        1.7727288055       19.8018724848
  C        10.5411159695        1.5642058114       20.6427181885
  C         9.9004749916        4.3533546108       18.5189032725
  C        10.0378375836        5.7100373704       18.4464199293
  H         1.8321399130        4.0886598886       26.6926732378
  H         3.3718696344        4.3655714208       27.7319310799
  C         1.5249538284        5.2658994424       28.4632145428
  S         6.6402907620       -2.5693396819       28.4874675766
  N         5.9832148203       -2.1542723564       29.9565730053
  C         5.3295679633       -0.0450378456       31.0548708865
  H         4.6666269128        2.1050585160       31.5788191438
  H         7.8363473345        0.8547351103       20.4218902902
  H         8.2797816732        1.5458968086       18.7545963745
  C         6.8403017043        2.7171768651       19.7881916559
  H        10.8288357594        1.0429684928       19.6908892103
  H        10.1812502859        0.7534581535       21.2691485645
  C        11.7063699921        2.3288716376       21.4465635820
  H        10.1670533412        3.7056193586       17.7229094447
  C        10.3448422590        6.4317734171       17.1869471357
  H         0.5952130064        4.6516246811       28.3467244813
  H         1.3343668680        6.2973913964       28.2827832131
  C         1.8477356535        5.1590343158       29.9621600699
  C         5.0592639191       -0.7933360607       32.2567192178
  H         6.9354226507        3.4178991348       18.9222976604
  H         6.7532963396        3.3892227279       20.6937560046
  C         5.4842271961        2.0555248000       19.6048648144
  H        11.3870981288        2.6404906036       22.4104249963
  H        11.9082033614        3.2623405881       20.8077969552
  C        12.9791873934        1.4996147834       21.6377316077
  C        10.6393662266        7.8438735419       17.1321224926
  C        10.5105550913        5.7164540345       15.8790399665
  H         1.4073659695        6.0674790791       30.4151763543
  H         1.2752638923        4.3123354432       30.3379646436
  C         3.2983321372        5.1290873064       30.4685104567
  H         5.2621819075       -1.8419464291       32.2316263423
  C         4.7777106855       -0.2928988871       33.5118356863
  H         4.7891197339        2.8288833420       19.8746510358
  H         5.4919833849        1.2703359513       20.3437920973
  C         5.1395639221        1.5476732670       18.1900773268
  H        12.8435568451        0.7263461613       22.3662890158
  H        13.2791777200        0.9602213535       20.7766912096
  C        14.1049651255        2.3851409443       22.1339571743
  N        10.6899924241        8.7183955985       18.2246449903
  C        10.8917882035        8.4590583547       15.9102809305
  C        10.9123296427        6.3113015771       14.6661455605
  H        10.4452680787        4.6400528755       15.7284552659
  H         3.5528569359        4.1053579141       30.2174372772
  H         3.9435974404        5.7553765699       29.8701564034
  H         3.5038036302        5.2501009835       31.5432036368
  S         4.4172912995        1.3532463265       33.9520832330
  C         4.8042984560       -1.1945233744       34.6674922384
  H         5.4703973340        2.2914669861       17.4742709699
  H         5.8184044719        0.7680268264       17.9174061213
  C         3.6675533908        1.1627310167       18.0829958678
  H        13.8193228043        2.9620917920       23.0555128122
  H        14.3771624872        3.1640734123       21.3863790054
  C        15.4907388133        1.6884012630       22.3356273470
  S        10.7116758056       10.2351939268       17.6598670387
  N        11.1030307718        9.8631707029       16.1338190507
  C        11.0689780552        7.7571353583       14.6698662232
  H        10.9260511709        5.7654789013       13.7438214975
  C         4.1762846177        0.6708577030       35.6047442940
  N         4.3205697761       -0.6468039860       35.7768659570
  O         4.8760797320       -2.3851864785       34.5310086582
  H         3.1132476523        1.4469373224       17.1730636391
  H         2.9647739704        1.8134265121       18.7658095486
  C         3.5603321822       -0.3223529472       18.3484314796
  H        15.2329806928        0.8461095016       22.9729465102
  H        15.9654797352        1.2395912643       21.4651430725
  C        16.4700226871        2.5943165192       23.0883682846
  C        11.4084543436        8.5177671471       13.5118163111
  S         3.8078720838        1.5692335735       37.0214708380
  C         4.2398820577       -1.3541755767       37.0668404091
  H         4.3193287943       -0.7789212596       17.6999500343
  H         3.8205280844       -0.5415034952       19.3370908161
  C         2.3052893366       -0.9262168435       18.0081478191
  H        16.0629227564        2.8038848589       24.0651949011
  H        16.4083014173        3.4884186600       22.5639914236
  C        17.8923776879        2.0532653304       23.3057500606
  H        11.2908317084        9.6097226915       13.5523748643
  C        11.8655378949        8.2051810158       12.2208775163
  H         3.4570865051       -0.9878342686       37.6799172189
  H         4.1139072821       -2.4289181611       36.9350183016
  C         5.5472345744       -1.2348860048       37.9227219839
  H         1.6198882837       -0.1521239847       18.2504163232
  H         2.0769072549       -1.7786709373       18.6082387446
  C         2.2242563694       -1.3160916666       16.4359588156
  H        18.3449465772        2.5760632014       24.1458864509
  H        17.8108729597        0.9772197553       23.4482674396
  C        18.6577437013        2.3581933039       21.9917413858
  S        12.2952733649        6.6580967731       11.5955197624
  C        12.0141533590        9.2568720531       11.2094848249
  H         6.3351545054       -1.0182570003       37.1313227982
  H         5.4690370886       -0.3975904840       38.5650157815
  H         5.7702706504       -2.0495251018       38.6404651476
  H         2.2809132865       -2.4516260166       16.4250848447
  H         3.1103317911       -1.0276246043       15.8157167424
  H         1.2647702263       -1.0536528671       16.0039129234
  H        19.4342659096        3.0507936538       22.0903701714
  H        17.9930781026        2.9057921718       21.2785601366
  H        19.0746035943        1.5008707275       21.5637172596
  C        12.6349386589        7.4386063605       10.0245932145
  N        12.5208663802        8.7877110819       10.0697624907
  O        11.6189515669       10.4191010341       11.3295918079
  S        13.1529731978        6.6500774528        8.5490669715
  C        12.5931717446        9.6350084980        8.9215235271
  H        12.8313908057       10.6164449249        9.1799879953
  H        13.3651374605        9.3177512171        8.2377522213
  C        11.2384737214        9.6354900889        8.1441359036
  H        10.5115492240        9.8535824645        8.8845972269
  H        11.2691174830       10.3125742699        7.3323292244
  H        10.9266580294        8.7151903538        7.6265622941
  H        20.8348171163       11.6466488730        3.6962510933
  C        21.1625610916       10.6935448171        3.3198254103
  H        20.4476336322        9.9267754603        3.6773608701
  C        22.5333847327       10.2157043587        3.7831769683
  C        21.1187239063       10.6407668122        1.8501908040
  C        22.8664666053       10.3823322910        5.2718521190
  H        22.5800339592        9.1666790749        3.6460818516
  H        23.3587994155       10.6617692348        3.2662618952
  H        21.7609646406       11.3645078718        1.3394562407
  H        20.1014459137       10.8944330864        1.4994071679
  H        21.4340191180        9.6393057238        1.4604662863
  C        22.0826036688        9.2843649310        6.0842562252
  H        23.9304408138       10.3011893375        5.3466670328
  H        22.6137520864       11.4526774031        5.4901884361
  C        20.9148253718        9.8173688091        6.8630541510
  H        22.7153625104        8.7469586066        6.8520577169
  H        21.6807091620        8.5058758076        5.4920006615
  C        19.4250206365        9.6808572926        6.3983366818
  H        21.1424548847       10.7467308869        7.2236364325
  H        21.0262724860        9.3425641779        7.8524144256
  C        18.3785591355        9.9839896298        7.4134178892
  H        19.2500166633       10.2679400033        5.5425120497
  H        19.3130597221        8.6450650083        6.0772444831
  C        17.1120359562       10.7297190018        6.9471529101
  H        18.8332068938       10.8670499255        7.8841428441
  H        18.3327277257        9.1883367278        8.1476266311
  C        17.4613920846       12.1315898507        6.2722582024
  C        16.6194746780       11.4536270410        8.2059305142
  C        16.0635660675        9.8423400641        6.4366396973
  C        17.2474450717       13.2057109351        7.1503719363
  C        18.0311042458       12.4996783222        5.0195969614
  C        16.7899744261       12.7916760010        8.3506303932
  C        16.0264256519       10.8336338830        9.3303551788
  H        16.2832872457        9.3706232025        5.5689849476
  H        15.7775425660        9.1035220351        7.1947995214
  C        14.8391409363       10.6973477991        6.0462939677
  S        17.5669354875       14.7044076180        6.3866576334
  C        18.0610433451       13.8375049400        4.8755677725
  H        18.2379785649       11.6848699560        4.2876510048
  C        16.4162929249       13.4737847248        9.5018948293
  H        15.9950466916        9.7664905321        9.2501451630
  C        15.7276439803       11.4714118631       10.5253123675
  H        15.0261145384       11.5264198565        5.3020782150
  H        14.4320274852       11.1411013191        6.9834093000
  C        13.6948668449        9.9815773019        5.3139876393
  C        18.5024104131       14.4596719593        3.5720483975
  C        15.8758988000       12.8042554607       10.6561221241
  H        16.4644737304       14.5483716490        9.5323680296
  C        15.3816999333       11.0879197469       11.7361811896
  H        12.8210355688       10.5171979742        5.5318957510
  H        13.5935417241        8.9198414665        5.6737222798
  C        13.9143797198        9.9368165145        3.8068240138
  C        18.2783134344       15.8989015255        3.3075553876
  C        19.0319901148       13.5702999331        2.5024015826
  C        15.5385368352       13.5124100880       11.8862087628
  C        15.1921996465       12.1191963152       12.6109645134
  S        15.0002719851        9.5362582872       12.5277542596
  H        14.4980879825        9.0412732237        3.5589282345
  H        14.5554949213       10.6878729724        3.3286896541
  C        12.6281443467        9.8713092359        3.0873562036
  N        17.7220642196       16.8363640012        4.1794998169
  C        18.5545204226       16.3983964116        2.0524348299
  C        19.2794403203       14.1832418560        1.2117174708
  H        19.0752165664       12.5383610922        2.5542685679
  C        14.2936736211       14.3832160103       11.8871818827
  C        16.6660186630       14.2013449623       12.6002280539
  C        14.9799281568       11.7233495029       13.9582486853
  C        14.7398460129       10.3912896456       14.0362658515
  H        11.9387780126        9.2989811344        3.6470252434
  H        12.1782422785       10.8653494442        3.0083082642
  C        12.8944712611        9.2998911449        1.7001398267
  S        17.9069180895       18.3268424600        3.4708249946
  N        18.3759230139       17.8434200442        2.0404869464
  C        19.0754688502       15.6419067774        0.9362509636
  H        19.4894785870       13.5729416552        0.3367641777
  H        14.4634954007       15.4095979481       11.6050974368
  H        13.9349441127       14.3548461208       12.9347715363
  C        13.2175519275       13.8171347437       10.9702107937
  H        16.8897991591       15.0421745053       11.9833677532
  H        16.3686873310       14.6664759501       13.5415697376
  C        17.9297636383       13.3322938520       12.8569685860
  H        14.9106880897       12.4702050781       14.7470156262
  C        14.5053052991        9.6665492612       15.2881698244
  H        12.1509449174        8.5712305514        1.3446154766
  H        13.8345041216        8.7754470149        1.7703461481
  C        13.0027026198       10.3623006373        0.6578515279
  C        19.3544689942       16.2611357535       -0.2700379390
  H        13.5554625704       13.9993805048        9.9784790804
  H        13.1117046562       12.7047737341       11.1011949802
  C        11.8969989443       14.4870037010       11.1242227359
  H        18.2669406277       13.0245338515       11.8748039562
  H        17.5410947575       12.4128257461       13.2908838834
  C        19.0321627140       14.1059920674       13.6418931421
  C        14.2843234182        8.2302722675       15.4498080206
  C        14.4744701457       10.3679168541       16.5374064480
  H        12.0852286619       10.8647595905        0.6273456493
  H        13.6914953946       11.0911006140        0.9942558349
  C        13.5654622640        9.7127245466       -0.5988058654
  H        19.2466296551       17.2926497601       -0.2257349374
  C        19.7324225177       15.8676930503       -1.5335327628
  H        11.8696242681       15.4159619818       10.5328222927
  H        11.6540024825       14.7709854084       12.2083076704
  C        10.8342533402       13.5482904947       10.6222952969
  H        19.6993084904       14.4834767400       12.9123696517
  H        18.5843830474       14.8755825776       14.1721838431
  C        19.8252702635       13.1401164930       14.5105604749
  N        14.3403206050        7.3624877461       14.3720998771
  C        14.0220602954        7.6084418707       16.6399155790
  C        14.1250912696        9.7411988156       17.7086027924
  H        14.7098726735       11.3673455836       16.4957402153
  H        14.5505863089        9.4170927814       -0.5058022960
  H        13.5180534380       10.2713804605       -1.5413969743
  H        13.1667456866        8.7079045435       -0.7762715864
  S        20.1481171459       14.2503188343       -2.0084153936
  C        19.7441846666       16.8643936944       -2.5472490598
  H        11.2814960289       13.2102282212        9.6726022584
  H        10.6674019071       12.6374282464       11.1978461516
  C         9.4901069424       14.2240961963       10.3917121569
  H        19.6663817912       12.1273201369       14.2586913165
  H        19.4207143441       13.1531669665       15.4921970144
  C        21.3457708716       13.4966091071       14.6435180673
  S        14.0913109222        5.8569014284       14.9493372992
  N        14.0267274061        6.1887313833       16.5465977631
  C        13.8304492442        8.3152029531       17.8509621737
  H        14.0442957192       10.4108074073       18.5035646677
  C        20.1966903709       14.9317946827       -3.6663496103
  N        20.1070228329       16.3020383968       -3.6950573374
  O        19.3672107247       18.0109099927       -2.3278104838
  H         9.1040333739       14.1849251764       11.4016075824
  H         9.6475492275       15.2298772933       10.0923195636
  C         8.7804477195       13.4055451303        9.3477506624
  H        21.8862331079       12.6878056064       15.1190794181
  H        21.8302884923       13.5106128416       13.6846730500
  C        21.5355241352       14.9209609612       15.3568387346
  C        13.5303028608        7.5677941309       19.0457429142
  S        20.5755706114       14.1917016931       -5.1922132294
  C        20.1072441290       17.1619122863       -4.8782912509
  H         9.2711734584       13.4093202041        8.3643744606
  H         8.6217897852       12.3621069779        9.6424800276
  C         7.3735509954       13.9695932544        9.0881820835
  H        22.4126271000       14.8335955931       15.8587621398
  H        20.6418649298       15.0779624904       15.9848763554
  C        21.6566987142       16.1036230884       14.3147183561
  H        13.5997233408        6.4916073385       18.9106215531
  C        12.9895643530        7.9609521874       20.2414070342
  H        20.9848716759       16.8414881391       -5.5864470372
  H        20.3333672329       18.1224635007       -4.6013658604
  C        18.7726382128       17.1923198421       -5.6446498346
  H         7.0183192647       13.3465770668        8.2952059820
  H         7.4777758434       15.0057179893        8.7329983732
  C         6.5439142723       13.7561355621       10.3289933127
  H        22.1835284752       15.7707024125       13.3704300222
  H        20.6561456945       16.4529342146       14.0078722339
  C        22.4207754609       17.1641916076       14.9368451637
  S        12.5361903009        9.5063705699       20.6492016096
  C        12.8344564967        6.9368731522       21.3077096385
  H        18.9125822056       17.8894175310       -6.3911175622
  H        17.9488597210       17.4367163699       -4.9338040679
  H        18.6973492605       16.2011966627       -6.0363486897
  H         5.5918711557       13.4506178916        9.9343199265
  H         6.8215624595       13.1106563756       11.1254147112
  H         6.4488659755       14.6918280350       10.8281613757
  H        23.4539960434       16.8102305277       15.2605750781
  H        22.5081676115       18.0077295911       14.2459307722
  H        21.9303180058       17.5588750350       15.7928643343
  C        12.1925858774        8.8404589009       22.2118413994
  N        12.1622014679        7.4825040625       22.2962610780
  O        13.0931006949        5.7517022988       21.1783171677
  S        11.4720889276        9.9031907504       23.4616929668
  C        11.7089055664        6.6995926450       23.4670174564
  H        11.4859219387        5.6566743209       23.1862631347
  H        10.7531669286        7.1124530552       23.7706252060
  C        12.7961990926        6.6011919844       24.4715817906
  H        12.6579511636        5.7947664141       25.1709439036
  H        13.1004600249        7.5161902404       25.0586931147
  H        13.6627827014        6.3378512693       23.8616244043
