352
 i =    15100, time =    15100.000, E =        24.3810064096
  H        11.0721340647        6.9220361503       32.5560621990
  C        11.1083561882        5.8674970170       32.3330812847
  H        12.1204599560        5.5583518050       32.0735170596
  C        10.1284612174        5.3095435671       31.2890022403
  C        10.7117398872        5.2001327907       33.6773762134
  C        10.9323838118        5.3685891160       30.0150401659
  H         9.9003066084        4.2594664779       31.5895283859
  H         9.2729274712        6.0197659628       31.2573794560
  H        11.5076786886        5.5632361840       34.3804253630
  H         9.6909692399        5.3402834948       34.0119072476
  H        10.7877112145        4.0971809443       33.6424789075
  C         9.9503282889        5.3625200820       28.7996396875
  H        11.6460659832        4.5489422659       29.9467935808
  H        11.4606639821        6.3171118632       30.0507823737
  C        10.6760427394        5.0283937780       27.5102827931
  H         9.3207917587        4.5195483356       29.0220864207
  H         9.3236631214        6.2159230816       28.6584826567
  C         9.7827189397        4.4834733655       26.3607688300
  H        11.4426937736        4.2742568535       27.7415701951
  H        11.2547815940        5.8723149303       27.1471801161
  C         8.5423278301        5.3294232854       26.0215599637
  H        10.4263582587        4.1733694101       25.5135487026
  H         9.3017396085        3.5355869598       26.6388580722
  C         7.3767151925        4.7107474549       25.2487184493
  H         8.0966395996        5.7718719119       26.9114439806
  H         8.9652640334        6.0944027876       25.3510276892
  C         6.9656663101        3.2946896417       25.7843697743
  C         7.7831332742        4.0058448636       23.9896287489
  C         6.2907836023        5.8180372445       24.9908216763
  C         7.1145632459        2.1673992770       24.9695042229
  C         6.5869945066        2.9446895472       27.0814560347
  C         7.6656090108        2.6442103758       23.7740250773
  C         8.4054297810        4.6756226853       22.9145142742
  H         6.7143963526        6.6707111543       24.3558719132
  H         6.2154049206        6.2804543419       26.0003364463
  C         5.0028844290        5.1736743758       24.4594024320
  S         6.7545013184        0.7107224904       25.8594482595
  C         6.4704877671        1.5800129876       27.2805929538
  H         6.5217788813        3.7552072938       27.7616593046
  C         8.0823892662        2.0578175777       22.6211404234
  H         8.6522750110        5.7801371815       23.0331725280
  C         8.7865117978        4.1105075680       21.7188224995
  H         5.3070628068        4.6678231118       23.4866141035
  H         4.7691200463        4.3143454864       25.1571329312
  C         3.7665643287        6.0551400155       24.3619317953
  C         6.0385625324        0.9649522170       28.5630210090
  C         8.6363980865        2.7612179221       21.5572702846
  H         8.0431783730        0.9526868522       22.5042474164
  C         9.2581962913        4.4994144638       20.4923568146
  H         3.0372318391        5.6157410339       23.8050415543
  H         4.0879936564        6.9960690419       23.9106794152
  C         3.1180801772        6.2860238539       25.7468854642
  C         5.9515589784       -0.4165698641       28.8942929936
  C         5.6790843064        1.8959312732       29.6606467893
  C         9.0719449537        2.1285004539       20.2624273017
  C         9.4003920832        3.4900792736       19.6179421694
  S         9.7367230367        6.0322860417       19.7674495106
  H         2.3289104850        6.9809547658       25.3535776304
  H         3.8084609048        6.6988533020       26.4765605047
  C         2.5012056824        4.9454619183       26.4084243546
  N         6.2834734769       -1.4743885481       27.9737183455
  C         5.7038089522       -0.8894051338       30.1447946773
  C         5.2488221369        1.3349117888       30.9142764078
  H         5.5796399955        2.9074223284       29.6125404969
  C         7.9889469426        1.4090750996       19.5353018178
  C        10.2938985874        1.2394944333       20.5298233627
  C         9.8139758900        3.9081440018       18.3339504685
  C         9.9812393657        5.2755028066       18.1852238538
  H         1.9444957109        4.3699246068       25.6560836025
  H         3.3124994993        4.2479147055       26.7062249639
  C         1.7826898769        5.2019117978       27.6977926661
  S         6.1827741238       -2.8857760598       28.7952496800
  N         5.6184023873       -2.2958777848       30.1631328396
  C         5.3355514585       -0.0988481462       31.2262155656
  H         4.7490616084        2.0325376611       31.5676151925
  H         7.6535495661        0.5354235954       20.1500701437
  H         8.5146666074        1.0294419813       18.6757343723
  C         6.7839306159        2.3323202714       19.0820947754
  H        10.5899939140        0.9157029333       19.5534146008
  H        10.0300631875        0.3013759066       21.0255670159
  C        11.5732163500        2.0394727772       21.0164622609
  H         9.9253609153        3.1637842437       17.5755170296
  C        10.2788099622        5.9596979786       16.8610083290
  H         0.9656413519        4.4636945321       27.6673635935
  H         1.3119967692        6.1638457690       27.7570911309
  C         2.7186631701        5.0593037493       28.9936376928
  C         4.8973346476       -0.7534862445       32.4518133214
  H         7.0906166481        3.1800475743       18.5369673696
  H         6.3529077329        2.8021879065       19.9532291870
  C         5.6249577141        1.7694713655       18.3330216997
  H        11.4161433641        2.6386911423       21.9088989225
  H        11.9049134127        2.7989008153       20.3378830839
  C        12.7718480123        1.0971579582       21.2281410988
  C        10.3092029128        7.3725530060       16.7868212837
  C        10.2851367614        5.2218948926       15.5712987197
  H         3.1137669741        4.0796239464       29.1567430038
  H         3.5865756936        5.6791128085       28.9145574546
  C         1.8868243345        5.5356254041       30.2532288531
  H         5.0045361402       -1.8387168600       32.4771646728
  C         4.5546864430       -0.3271654123       33.7165566119
  H         5.2124283656        0.9163719693       18.9683425243
  H         6.0837203585        1.2063049995       17.4834521964
  C         4.4977943796        2.7008013294       17.9598130079
  H        12.7025514348        0.6335321227       22.2081345898
  H        12.7571510833        0.2974711366       20.4931567443
  C        14.1079312390        1.8392353433       21.0604435758
  N        10.1967881448        8.2603995497       17.9075607771
  C        10.4687401043        8.0707405139       15.6261295175
  C        10.3643898965        5.9174982261       14.3549576267
  H        10.1033534314        4.1489178357       15.6250199384
  H         1.1017478756        6.2258787837       29.9201292218
  H         1.4224498334        4.6297881752       30.6312709699
  H         2.5432686779        6.0642187263       30.9779494420
  S         4.3414744774        1.2325114444       34.2554270973
  C         4.3748657487       -1.3476527910       34.8111905032
  H         4.5768343803        3.6188164834       18.4871422334
  H         4.4781167813        2.9281284659       16.8472514523
  C         3.1644975194        2.0656024052       18.1921924234
  H        14.0043808415        2.7110794776       20.4164624902
  H        14.8602013968        1.2338802576       20.5673279031
  C        14.7310696431        2.2936388428       22.4106388358
  S        10.1778377206        9.7933242000       17.3762453194
  N        10.6021363104        9.4636378413       15.8290513522
  C        10.5411004770        7.4112910338       14.3499429234
  H        10.3907831677        5.3294883231       13.4720789180
  C         4.1528874512        0.6030599116       35.9276059787
  N         4.0678045379       -0.7745396150       35.9606217149
  O         4.4552018092       -2.5561164382       34.6995324058
  H         2.3360808328        2.7697289940       18.1085101924
  H         3.1681981373        1.7499080801       19.2164118536
  C         2.9323538426        0.8332053859       17.3600657874
  H        15.6307327999        2.8994421014       22.2617850016
  H        14.0718487923        2.8950950910       23.0285783052
  C        15.1913787975        1.0541962991       23.1408054841
  C        10.9169909628        8.2025217025       13.2081350931
  S         3.6861617184        1.5948372713       37.3351106186
  C         4.0051500061       -1.4907898117       37.2034034410
  H         2.0036663728        0.9851628500       16.7170723694
  H         3.6998128684        0.6211545794       16.6438678174
  C         2.6781141671       -0.4469051997       18.2174829640
  H        15.4350428038        0.2977380184       22.3955606546
  H        14.3125071727        0.6467194195       23.7254843497
  C        16.4026063778        1.4067614071       24.0399373057
  H        10.5776409790        9.2427702437       13.3822411618
  C        11.5745237921        7.9236641680       12.0422243208
  H         3.3172446320       -0.9877260768       37.8972702494
  H         3.4602576656       -2.4090586687       36.9953037707
  C         5.4073949011       -1.6375776371       37.7895947005
  H         1.8143784790       -0.2978087061       18.9329808890
  H         3.5351077624       -0.6415671788       18.7686174629
  C         2.2395068179       -1.6003584139       17.3819532550
  H        16.2235188847        2.2731901423       24.6702576552
  H        16.4148315482        0.5142736162       24.6949244200
  C        17.8056829286        1.4380630857       23.3921415534
  S        12.1703176420        6.3198620042       11.6130498714
  C        11.7312940784        8.9472667281       11.0629382362
  H         5.7544590983       -0.7398297368       38.2866240599
  H         5.5343658335       -2.4852924447       38.5166139117
  H         6.1141372630       -2.0070022026       37.0060698146
  H         2.9698063503       -1.8563963483       16.6234226857
  H         1.2505455588       -1.5034303867       16.9283054533
  H         2.1877506308       -2.4911109311       18.0688464576
  H        18.6651229427        1.1799837979       24.0168567624
  H        17.9300556271        2.4421646687       22.8882862603
  H        17.7548320551        0.7629341838       22.5719483210
  C        12.5245040373        7.1385855811       10.0316300987
  N        12.3515904738        8.4802245955        9.9784794124
  O        11.3466294783       10.0878760878       11.1684164775
  S        13.1108871329        6.3796828447        8.5027077045
  C        12.5517900454        9.3486437948        8.8098927362
  H        12.7138615062       10.3823368873        9.1737598529
  H        13.3624496348        9.0495232329        8.2149498859
  C        11.2455748564        9.4901281433        7.9316363816
  H        10.3930603332        9.1024035904        8.5034023586
  H        11.0467381381       10.4674197087        7.5491225796
  H        11.2213158799        8.8336462125        7.0971523462
  H        20.3136604886       11.5436266704        3.0217031073
  C        20.9131290325       10.6152980972        3.1873383465
  H        20.1843450043        9.9217644912        3.7235213119
  C        21.9696426464       10.8973447281        4.1778269306
  C        21.5353100075       10.1870908591        1.8581219939
  C        21.5744199198       10.9812048126        5.6506402958
  H        22.7991326300       10.1184658026        4.1404872800
  H        22.4776771883       11.8678257097        3.9767906788
  H        21.6629331697        9.1412604416        1.7081492315
  H        22.5841327425       10.5630063677        1.8295421879
  H        21.0423865019       10.6732239595        0.9971271609
  C        21.1906850909        9.6491458820        6.2188163471
  H        22.3936593444       11.3204847485        6.3021167777
  H        20.7946002539       11.7395520261        5.7018925288
  C        20.5206281555        9.6626121165        7.6340300903
  H        22.0855570786        9.0487595444        6.2206661796
  H        20.5065320203        9.0771390976        5.5560373999
  C        19.3079650515       10.5461962952        7.8367993366
  H        21.3062619904        9.9700577206        8.3186320229
  H        20.3017863801        8.6271751219        7.8351430771
  C        18.0106263097        9.8524716528        7.2734786458
  H        19.2115658740       10.7292601602        8.9226001180
  H        19.4772676760       11.4678359910        7.2728381866
  C        16.7396895349       10.7382150941        7.1545279682
  H        17.8946197553        8.8943253581        7.7737227518
  H        18.3118182538        9.5083659783        6.2862391934
  C        17.0424024714       12.0160579298        6.4976517704
  C        16.3221165583       11.4020672762        8.3808878030
  C        15.7345193902        9.9495154178        6.3402162391
  C        16.7875925317       13.1210658857        7.3443134468
  C        17.5059800194       12.4045739596        5.2228310509
  C        16.4130348974       12.7280170521        8.5730352385
  C        15.9092311692       10.6260643597        9.4863576027
  H        16.1614238960        9.7500606525        5.4245935335
  H        15.5115071176        9.0211825037        6.9028399972
  C        14.3822778026       10.6321389309        6.1503234640
  S        17.0814748913       14.5635291752        6.4179434773
  C        17.5329050941       13.7142866722        5.0116971951
  H        17.7139572453       11.6414578463        4.4569713060
  C        16.1376458305       13.2737905621        9.7578787329
  H        15.9390889640        9.5469658400        9.4080341364
  C        15.6893497476       11.1987281287       10.7078785151
  H        14.7048056479       11.6613042957        5.8117129920
  H        13.8350295935       10.8639516922        7.0692933866
  C        13.3262815822       10.0531235044        5.0734676789
  C        17.8130771137       14.4202248661        3.6989840821
  C        15.7451613924       12.5091455201       10.8606219470
  H        16.1616016055       14.3677189215        9.8540717868
  C        15.1877459714       10.7306580196       11.9251965777
  H        12.4870257918       10.6853178066        4.9441850310
  H        12.9903512854        9.1151203765        5.3461605125
  C        13.9782843403       10.0056004372        3.6985595306
  C        17.8670909379       15.8327277275        3.4931033007
  C        18.3835466329       13.7018993636        2.5135729872
  C        15.3539691969       13.1936402305       12.1520924264
  C        15.0509315799       11.7996649701       12.8042593590
  S        14.7782830752        9.1156881540       12.5648904950
  H        14.6433479777        9.1022345864        3.6599710766
  H        14.5790683837       10.8627083873        3.4927036183
  C        12.8689200702        9.7762031689        2.6010500491
  N        17.6203968404       16.8149836613        4.4815984189
  C        18.1301701378       16.4276524414        2.2517360192
  C        18.6227890284       14.2771569633        1.2850367065
  H        18.3899994010       12.6910251295        2.5315150973
  C        14.0518184543       14.0639653776       11.9100546642
  C        16.4796969219       14.0839797761       12.8223937374
  C        14.6224697725       11.3526115968       14.0525831775
  C        14.4101110314        9.9853460198       14.0418110956
  H        12.4327776063        8.8337933594        2.8288112645
  H        12.0544068676       10.4997393209        2.7266756502
  C        13.3920384154        9.6899255078        1.2081973303
  S        17.6952487259       18.2763464452        3.8194433757
  N        18.0266574839       17.8377626473        2.2395147657
  C        18.4636485150       15.7294241849        1.0722830003
  H        18.8961879620       13.5967058173        0.4806095527
  H        14.3649631323       15.0221376268       11.4575937864
  H        13.6298112470       14.2735019853       12.8975395623
  C        12.9541386645       13.4093576240       11.0868806440
  H        16.7079695149       14.9302318449       12.1801684881
  H        16.0647506618       14.5068273256       13.7850118106
  C        17.7579105557       13.3776207295       13.2870501149
  H        14.4126235852       12.0224828181       14.8926136108
  C        14.0614943702        9.2151825599       15.2816226341
  H        14.2646243598        8.9999733249        1.1855750248
  H        13.7953317241       10.6582902997        1.2080092540
  C        12.2005449868        9.5004256397        0.2044062743
  C        18.5880715600       16.3807988347       -0.2393607025
  H        13.3663892870       13.3281196337       10.0897233159
  H        12.7544058538       12.4058318807       11.5255637604
  C        11.6015500569       14.0897647833       11.0710420477
  H        18.2956048751       12.8197017301       12.4961987845
  H        17.5646165092       12.7375141726       14.1434800012
  C        18.7988093339       14.4040566148       13.7089036805
  C        13.9435207411        7.7614632510       15.4480699512
  C        13.6527918567        9.9734002501       16.4582062761
  H        11.8505450746        8.4607150065        0.3684394669
  H        11.3528156940       10.1523934475        0.4156843527
  C        12.5724865999        9.7629976436       -1.2981407244
  H        18.4053007679       17.4388679873       -0.2098664706
  C        18.8442471519       15.8483007058       -1.5304227716
  H        11.7341015970       14.9886839343       10.4230488876
  H        11.3756734190       14.4914673247       12.0375955350
  C        10.5551044718       13.1515808487       10.3919225166
  H        18.9925722182       15.1172758062       12.8467099372
  H        18.6032573148       14.9569114920       14.6674627784
  C        20.2352336375       13.8127749147       13.8592136474
  N        14.2983727332        6.8018461793       14.5501974106
  C        13.7155418306        7.1772535815       16.6810575046
  C        13.3967319305        9.4269051115       17.6908760473
  H        13.6263573719       11.0181943900       16.4950131836
  H        12.0447089682        9.0989710600       -1.9902060116
  H        13.6396067568        9.7016795020       -1.3826337266
  H        12.3587175866       10.7879118757       -1.6645194995
  S        19.2883736249       14.2411452265       -1.9832416018
  C        18.8548256909       16.8804970284       -2.6013240360
  H        11.0772129369       12.4583174229        9.7076376904
  H        10.0074243061       12.5371364761       11.0659770248
  C         9.3536243144       13.9211040642        9.7859618956
  H        20.6226875440       13.5701266935       12.8901316749
  H        20.2504716436       12.8767695048       14.4834537800
  C        21.2254075184       14.6911381897       14.6059652508
  S        14.0277076484        5.2741029346       15.1578044436
  N        13.6689158741        5.7527615853       16.6760333417
  C        13.4210488751        7.9341113627       17.8546591457
  H        13.1007301378       10.0408758670       18.5109973128
  C        19.4152369427       14.8728639901       -3.5856589576
  N        19.2189369385       16.2012584135       -3.7212350173
  O        18.5535291969       18.0867788742       -2.4722345004
  H         9.1029645351       14.7012833685       10.4604713114
  H         9.6632656694       14.4014388906        8.9199706314
  C         8.0923268122       13.0519950547        9.3839518525
  H        20.8616557217       14.7937613713       15.6339517665
  H        22.1245785587       14.1976926287       14.5750095055
  C        21.4182877965       16.1032299738       13.9533662206
  C        13.1694165131        7.2562549183       19.1419612680
  S        19.9241305860       14.0818835204       -5.0450743525
  C        19.1371938402       16.9323108275       -4.9639402808
  H         8.0006460400       13.3041607328        8.2421005134
  H         8.2482122311       11.9500421425        9.4534814831
  C         6.7689971938       13.3075910622       10.2001323070
  H        20.5083450607       16.6656251930       13.9008233508
  H        21.7602556459       15.8637990762       12.8706940681
  C        22.4772876469       17.0436421998       14.4855500418
  H        13.6492342937        6.2943007943       19.0993676480
  C        12.6208300390        7.6291849890       20.3503162236
  H        19.8905524915       16.6006916685       -5.7047736758
  H        19.4728825916       18.0022570998       -4.9849155219
  C        17.7822393933       16.9032510925       -5.6288926072
  H         7.1277281710       13.4078214995       11.2377638379
  H         6.1240773824       12.4278362131       10.1450556265
  C         6.0496559145       14.5579960784        9.8583767393
  H        23.4796125885       16.5982549783       14.2663720612
  H        22.5315552079       17.9110521534       13.8618164568
  C        22.2715567790       17.5828649066       15.9325545110
  S        11.9349870109        9.1042097423       20.8847568332
  C        12.5343143505        6.6088075327       21.4207041862
  H        17.1023044583       17.3551944051       -4.8799933294
  H        17.3922101433       15.9141641682       -5.8990328020
  H        17.7481573312       17.5271477206       -6.5107564360
  H         5.8435958945       14.6048581662        8.8428273780
  H         5.1127354601       14.5741888716       10.4271023630
  H         6.6465129834       15.5237199640       10.0425095029
  H        22.7489357813       18.5748964759       15.9373547730
  H        21.2366118067       17.7009136643       16.1622020832
  H        22.7060672164       17.0354753881       16.7351951519
  C        11.5358037232        8.3154956724       22.3940821687
  N        11.8965373784        7.0341914815       22.4972560910
  O        12.9614968238        5.4855984010       21.2790359161
  S        10.5644786107        9.0559447888       23.6824348759
  C        11.8679140112        6.2213538665       23.6826487725
  H        11.4481877908        5.3083582989       23.3622847806
  H        11.1558067364        6.6109166356       24.4580785994
  C        13.2663027173        6.1104319940       24.2700950883
  H        13.5646509156        5.0853233038       24.2341063534
  H        13.2276810677        6.4441393983       25.3031303339
  H        14.1177339924        6.7397577334       23.8143251136
