352
 i =    28800, time =    28800.000, E =        24.6863332001
  H        10.6181581002        6.5502351632       33.0812600266
  C        11.3001898257        5.8293579106       32.5953847710
  H        12.2166855633        6.3674721100       32.3414139008
  C        10.5445497134        5.2753960079       31.4451529079
  C        11.5387564642        4.8389239444       33.7518407413
  C        10.8581345958        5.8829396539       30.0555500083
  H        10.5077473323        4.1318820265       31.5511105049
  H         9.4791647168        5.4257880446       31.7017504687
  H        12.4991281305        4.2462304106       33.5946427376
  H        11.6851785626        5.2860135352       34.6877657996
  H        10.7029375387        4.1100281386       33.8991709756
  C        10.2808148970        4.9471625942       28.9695375658
  H        11.9318853695        6.1444296859       29.9263963820
  H        10.4259892542        6.9026511614       29.9993423823
  C        10.4534054260        5.5325596846       27.6314312755
  H        10.8887133007        4.0527092933       29.0363540807
  H         9.2904470801        4.7091835515       29.2994702099
  C         9.6882729919        4.9764897978       26.4109559415
  H        11.4826527140        5.6624737088       27.3491687195
  H         9.9511050132        6.5165376076       27.7297701600
  C         8.3930230919        5.7410088439       25.9156301541
  H        10.3047159741        4.5837572674       25.5878364252
  H         9.3938462845        4.0003850608       26.7601880059
  C         7.2831997348        4.8971062793       25.3177931778
  H         7.9043167770        6.2070919715       26.7221650010
  H         8.7262909385        6.4912846008       25.1661791336
  C         7.1174749792        3.5253610693       25.9101362154
  C         7.6497684113        4.2937065118       24.0365688982
  C         5.9110394634        5.7542500501       25.3288950735
  C         7.2722660660        2.4873738348       25.0214326101
  C         6.6727842074        3.0417163318       27.1421302939
  C         7.6284542114        2.9921729197       23.7999743311
  C         8.1515959453        5.0794337345       22.9697811727
  H         5.9646938549        6.6074243815       24.6481422344
  H         5.8496609241        6.1565519468       26.2901906161
  C         4.6212333317        4.9882037748       24.9566176277
  S         6.8256459098        0.9552827121       25.7421430732
  C         6.4003036066        1.7180405183       27.2553649302
  H         6.5833572248        3.8221638595       27.9062814641
  C         7.9832348924        2.4464959645       22.5726638226
  H         8.2909460272        6.1612546480       23.0738201482
  C         8.5458455653        4.5718414365       21.7153743602
  H         4.6320026951        4.8278817668       23.9776026432
  H         4.5083614355        4.0398015351       25.5062066382
  C         3.4155673347        5.8498952581       25.1969243573
  C         5.8422045402        1.0763896417       28.4913330074
  C         8.3706312027        3.2312494787       21.4677517904
  H         7.9699772472        1.3912007287       22.4347686224
  C         8.9509341719        5.0692181147       20.4773900661
  H         2.5418714860        5.4642876834       24.5518529385
  H         3.5012281593        6.8482016017       24.7203785607
  C         2.9752053118        5.9956464945       26.6158184682
  C         5.7936561904       -0.3344512333       28.7592430338
  C         5.3566360362        1.9824840877       29.5935470855
  C         8.7333846197        2.6179610167       20.1784895213
  C         9.1453940848        3.9881486788       19.6193221235
  S         9.4252089993        6.5874882951       19.8366735016
  H         2.3787158612        6.8776050533       26.6823854375
  H         3.8873500967        6.1686682339       27.2376852754
  C         2.3876412128        4.7324794300       27.2582103907
  N         5.9342078901       -1.3878376722       27.8009730954
  C         5.5256445878       -0.8298190782       30.0133589933
  C         5.1228560878        1.4382136781       30.8656554686
  H         5.3248918513        3.0733793110       29.5127003330
  C         7.5625596261        1.9103228369       19.5489286941
  C        10.0059106297        1.7601251825       20.2520390498
  C         9.7209037426        4.3860774999       18.4153066453
  C         9.8649464195        5.7648690107       18.3067619503
  H         1.6153699652        4.2258338386       26.5741655122
  H         3.1287225717        3.9876491513       27.3860657158
  C         1.5954974125        4.9039120889       28.5533912677
  S         5.8209616805       -2.7941863035       28.5900488316
  N         5.5099221776       -2.2268650479       30.0596594795
  C         5.1778883463       -0.0910753787       31.1225651931
  H         4.8117679588        2.0835516409       31.6585137970
  H         7.0404838748        1.3585493150       20.3525874942
  H         7.8929260341        1.1512226710       18.9438956820
  C         6.4105946751        2.7815633712       18.9885987240
  H        10.3278501444        1.7589855775       19.2146956734
  H         9.8404160583        0.6642932824       20.5533077782
  C        11.1027074351        2.3292767298       21.1696358208
  H         9.8798618387        3.7337592153       17.5991592338
  C        10.2688013095        6.5258315807       17.0731183199
  H         0.8829155034        4.0018189872       28.5262346406
  H         1.0316451581        5.8334558667       28.3753982517
  C         2.4945866970        4.9433258629       29.7485056527
  C         5.0888718284       -0.7097259453       32.3717535156
  H         6.9276002103        3.3511177388       18.2020130525
  H         6.1265743228        3.5291171616       19.7802518133
  C         5.2757417652        1.8820295854       18.5635220771
  H        10.6812393799        2.4186300749       22.1693998051
  H        11.2251873795        3.3401864240       20.9308351803
  C        12.4920317342        1.5199247728       21.2973674179
  C        10.1548047126        7.9413011098       16.8811323631
  C        10.6702489535        5.8350884672       15.8211367614
  H         3.1882778355        4.1435654706       29.7525970730
  H         3.1751700851        5.8388601719       29.6378393034
  C         1.7439261990        5.0027234553       31.0425235787
  H         5.2854978295       -1.7692209546       32.4348789355
  C         4.7246347253       -0.2306277056       33.5910085885
  H         4.8212869653        1.4157253864       19.3762793680
  H         5.6316987649        0.9717218702       18.0300225433
  C         4.3167025443        2.6141043967       17.5814072360
  H        12.5901939457        0.9629759356       22.2677662343
  H        12.5657290248        0.6838544938       20.6092401753
  C        13.7239941217        2.3420225129       20.8991338011
  N         9.8786779078        8.8579593125       17.9341876008
  C        10.3825932790        8.5757812748       15.6788083962
  C        10.8860169744        6.4776287327       14.5907179338
  H        10.6903068804        4.8021220924       15.7639329411
  H         2.4433686476        5.0044433732       31.8746476161
  H         1.2077624583        5.9032943686       31.2456431351
  H         0.9410992901        4.3004613867       31.0960530087
  S         4.4306962072        1.4280989430       34.0529983651
  C         4.6277148114       -1.2251634729       34.7232752128
  H         4.2390333885        3.7040865075       17.7376915038
  H         4.7375703136        2.5142784953       16.5426881511
  C         2.9255236833        1.9164069344       17.6400705558
  H        13.5723183874        3.0954010967       20.1313388882
  H        14.3758480848        1.7857282044       20.1326706522
  C        14.4047589695        2.7734530421       22.1146502573
  S         9.8736195968       10.3210072455       17.2864879680
  N        10.2565857385        9.9710758046       15.7420282694
  C        10.7516717324        7.9601106926       14.5037237419
  H        11.0928873156        5.8074602125       13.8269959609
  C         4.2111085877        0.7682612380       35.7046574677
  N         4.3310363499       -0.5413952744       35.8453857138
  O         4.9468201048       -2.4067464336       34.7032129138
  H         2.0813568724        2.5905636957       17.4478557635
  H         2.7431942550        1.5920695878       18.7449805621
  C         2.7129459174        0.6441558630       16.7838951768
  H        14.8117827976        3.8154772864       22.0103124719
  H        13.8038789576        2.6682706174       22.9695502750
  C        15.4925184229        1.7162924334       22.3467899379
  C        10.9758664136        8.6969901858       13.2820150709
  S         4.0206921770        1.7761184431       37.1201634821
  C         4.2950331493       -1.0884386420       37.2238071921
  H         1.7038998182        0.6137210339       16.4406518780
  H         3.3691884480        0.5976172363       15.9422460957
  C         2.9879793446       -0.6882332426       17.5521724200
  H        16.0496334280        1.5560479846       21.4327453748
  H        14.9715722583        0.8215480273       22.6603210205
  C        16.5057229557        2.1150589455       23.5211420551
  H        10.5077603163        9.7040917151       13.2076462380
  C        11.5251871806        8.3592808798       12.0815163461
  H         3.6561991435       -0.6085956641       37.9771595390
  H         3.8596909925       -2.0032781913       37.1219844357
  C         5.6965576341       -1.2836377026       37.7936586812
  H         3.7889972418       -0.6779222450       18.2685526453
  H         3.1515783680       -1.4870913214       16.7285620416
  C         1.6844526744       -1.1783103315       18.1532734897
  H        16.2685093198        3.0829406131       23.9016607000
  H        16.4900772640        1.4401362776       24.3584393028
  C        17.9333272683        2.1036335822       22.9390749091
  S        12.0903115563        6.8134784917       11.5056085268
  C        11.5305470229        9.3710553456       10.9560163124
  H         5.8760890671       -2.2364850144       38.1035382353
  H         6.4135533725       -0.7477065600       37.0916334855
  H         5.6009969006       -0.7139652612       38.7566535352
  H         1.7470172047       -1.9669477011       18.8960866562
  H         1.1139544272       -1.5641795438       17.2924586178
  H         1.1557497536       -0.3730049453       18.7073682048
  H        17.9941181628        3.0820092437       22.4674031981
  H        18.0338955301        1.3013943393       22.2132955237
  H        18.7245511510        1.9656633710       23.6647675505
  C        12.5296615906        7.6172598445        9.9719072569
  N        12.1736687594        8.8675110586        9.8525715260
  O        11.1767373399       10.5241313941       11.0975759001
  S        13.1060202794        6.7249164194        8.5686443897
  C        12.3079597047        9.7313256909        8.6953755469
  H        12.3836776892       10.7981566843        8.9631750977
  H        13.1611097906        9.4623505446        8.1325340378
  C        11.1025322119        9.5311613687        7.7334796213
  H        11.1382836724        8.6338574288        7.2114548756
  H        10.2065307962        9.7043753346        8.3206441191
  H        11.0016688809       10.2661827992        6.9865232240
  H        20.8238246261       11.7692406923        3.3756149360
  C        21.4845441716       10.8858219350        3.4307564143
  H        20.8527102389       10.0121828735        3.5272588556
  C        22.3916335513       10.9395006665        4.7316799091
  C        22.2121909796       10.6635299682        2.0796030974
  C        21.7014198286       11.1448463718        6.0344487084
  H        22.9605752142       10.0747903137        4.7342196425
  H        23.1508094151       11.7002331974        4.6343453916
  H        22.8278966746       11.5057360661        1.9247540355
  H        21.5215967710       10.5299689077        1.2237740771
  H        22.8815892832        9.8200903298        2.1469382249
  C        21.1373104996        9.7788992635        6.6049287794
  H        22.4241725295       11.4790691816        6.7750846004
  H        20.9623596445       11.9262744341        5.9390818256
  C        20.5172996526        9.8313868637        8.0028155045
  H        21.9238883834        8.9802914550        6.5336263147
  H        20.4290148327        9.3732503063        5.9053277484
  C        19.2651141614       10.6879332720        7.9233747627
  H        21.2162394427       10.2987566579        8.7368342558
  H        20.3985317191        8.7620698522        8.2545222548
  C        17.9823436910       10.0982472226        7.3017806626
  H        19.0655820113       11.1561931733        8.8842783859
  H        19.5717644925       11.5782564753        7.3732015156
  C        16.7825208200       10.9882576685        7.1111123185
  H        17.7153792998        9.3652641893        8.0783383468
  H        18.1456142654        9.5300916614        6.3407863435
  C        17.1262536495       12.3295692646        6.4314950326
  C        16.2999953415       11.6952021831        8.2588227199
  C        15.6610464664       10.2867145273        6.2796258453
  C        16.9785299064       13.4309437290        7.2916064311
  C        17.5262350875       12.6823483156        5.1504123701
  C        16.4343860639       13.0265825102        8.4763251647
  C        15.8724961913       10.9873784697        9.3961331038
  H        16.1298260345        9.9960440438        5.3134455089
  H        15.4042693964        9.3275855232        6.7838620295
  C        14.3931235174       11.1796359061        5.9812503299
  S        17.3900251848       14.8729741618        6.4500380510
  C        17.7551500433       14.0051530567        5.0015393026
  H        17.4109298191       11.8736647617        4.4227898360
  C        15.9928292765       13.5981623926        9.5948749470
  H        15.8830787066        9.8874553292        9.4426442242
  C        15.4773345892       11.5799403436       10.5539597685
  H        14.7767552262       12.1861238050        5.7637156576
  H        13.7718178152       11.2760341059        6.9287206222
  C        13.4967214089       10.7290326983        4.8153999206
  C        18.0966389259       14.6877835446        3.7261594589
  C        15.5015899188       12.9235884129       10.6926617777
  H        16.1561292574       14.6148616830        9.7422189973
  C        15.0773320664       11.1747771345       11.7935088444
  H        12.5834455986       11.2745357429        5.0659202588
  H        13.0554522055        9.7168561693        4.9679031886
  C        14.0399603540       10.8244869616        3.3735543672
  C        17.9875596721       16.0328134101        3.4203961052
  C        18.8533520574       13.9594151549        2.6905940412
  C        14.9533747741       13.6398743989       11.9137664511
  C        14.7625260724       12.2790463439       12.6030591260
  S        14.5664334420        9.7212649090       12.5596695627
  H        14.9304007889       10.2792303105        3.2164451862
  H        14.2198598506       11.8498995393        3.2668129969
  C        13.0270795482       10.4287120525        2.3369210167
  N        17.4449394651       16.9732575321        4.3116291220
  C        18.2706587210       16.6289778273        2.1829500174
  C        19.1335128459       14.4971726270        1.4478241998
  H        19.0219956418       12.9310172193        2.8073018955
  C        13.6478618937       14.3312683027       11.6213380788
  C        16.0497375973       14.4838124869       12.5525215981
  C        14.2925285584       11.8984829276       13.8322408703
  C        14.1436488059       10.5273276587       14.0230797145
  H        12.7336868594        9.4182933547        2.3849484655
  H        12.1459186765       11.0306149428        2.6158654384
  C        13.2630079411       10.8592251085        0.8655506227
  S        17.4178710725       18.4163293278        3.6008326552
  N        18.0249065600       17.9728556773        2.1988872241
  C        18.7666857338       15.9262831223        1.0854473607
  H        19.7484249044       13.9411498204        0.8079594750
  H        13.8226008748       15.0810465036       10.8421746512
  H        13.1994759812       14.7698026887       12.5027240663
  C        12.5344720474       13.4776331055       11.0094862915
  H        16.3710781856       15.2961866819       11.8412779736
  H        15.7210803383       14.9870132785       13.4563409711
  C        17.1952286176       13.6692354313       13.0470592170
  H        14.0138122159       12.7633430450       14.4903641284
  C        13.7645813237        9.7340614286       15.2440093996
  H        13.9975330238       10.1494935011        0.4405320166
  H        13.6163725820       11.8930836318        0.7648405720
  C        11.9345085314       10.6764907462        0.0232921534
  C        18.9928097522       16.6498140924       -0.1501315755
  H        13.0437789694       13.0347809680       10.1331442245
  H        12.3289008302       12.7216362376       11.6936543302
  C        11.1861800145       14.2479959435       10.7294156975
  H        17.6621851266       13.2333202150       12.1867315403
  H        16.9525181807       12.9121118274       13.7404684324
  C        18.2516072372       14.6738905526       13.5463662659
  C        13.8841985215        8.2688414449       15.2977816316
  C        13.5680383981       10.4060720490       16.4659439648
  H        11.7451210281        9.5869414569        0.0219874337
  H        11.1447527040       11.1556405047        0.5889980602
  C        12.0151896953       11.1567912709       -1.4439618812
  H        18.9756624921       17.6885983079       -0.0777001102
  C        19.3736773889       16.2213159543       -1.4078116377
  H        11.3620873516       14.7983834316        9.8519343453
  H        11.0456877272       14.9544385777       11.5627639297
  C         9.9466310403       13.3612516371       10.6208901189
  H        18.3757834493       15.4682431532       12.7584650599
  H        17.9922570950       15.1676676756       14.4712175426
  C        19.6289894913       14.1304223814       13.8472391544
  N        14.2217728914        7.3782300361       14.2292024587
  C        13.5864017344        7.6435499715       16.4705703710
  C        13.3100476849        9.7498860376       17.6721760210
  H        13.6245135855       11.4465100066       16.5166721850
  H        12.6746952401       10.5502096550       -1.9901798008
  H        12.3452513130       12.1797591341       -1.5791573351
  H        11.0083735276       10.9906178772       -1.8997709642
  S        19.6629805694       14.5791619376       -1.7882978807
  C        19.4949226483       17.1629251568       -2.4913262536
  H        10.1038669445       12.7826301880        9.7374089586
  H         9.9700828434       12.7759219604       11.5464535988
  C         8.7390809481       14.1769038967       10.2774036397
  H        19.8982562034       13.4242627925       13.0258285934
  H        19.6201567019       13.6344341531       14.8137873440
  C        20.7447801024       15.2146318363       13.9256247397
  S        14.2755899627        5.9169168069       14.8598154529
  N        13.7407049252        6.2502376540       16.3822786897
  C        13.2478317042        8.2961864542       17.6915639936
  H        13.2280347328       10.3654165469       18.5205809311
  C        19.9953507846       15.1786099367       -3.4185308094
  N        19.8529894216       16.5113814523       -3.5956363848
  O        19.4562508802       18.3590599192       -2.4279959211
  H         8.2230185378       14.4932088566       11.1723995286
  H         9.0256899741       15.1096542522        9.8529485705
  C         7.8240619430       13.5675506713        9.1515787706
  H        21.6558028822       14.6258021127       14.1567558343
  H        20.8610351949       15.7011547298       12.9275876665
  C        20.5814327994       16.2468563745       15.1007763353
  C        13.0229669242        7.3994899109       18.8384773697
  S        20.2865959340       14.1213210536       -4.8284345840
  C        19.9497057560       17.1618538592       -4.8669743486
  H         8.4517261061       13.5082676965        8.1979601800
  H         7.6183272030       12.4956462844        9.3303932746
  C         6.5286426339       14.2894089143        8.8027109418
  H        20.7285380281       15.6881455666       15.9879431189
  H        19.5852581818       16.6752706333       15.2040417649
  C        21.6143342289       17.3597988524       15.1710656878
  H        13.3354816245        6.3708393792       18.7155833263
  C        12.5630516912        7.7037379272       20.0964644988
  H        20.8878528276       16.7942352646       -5.2939106561
  H        20.1625052159       18.2456134503       -4.7491136226
  C        18.6868709933       17.0333668970       -5.6711834089
  H         6.1268027102       13.9244182943        7.8040058567
  H         6.5386318084       15.3940611153        8.6786250114
  C         5.4063667383       13.9571461684        9.7649809763
  H        21.2041359442       18.0564284200       15.8708429218
  H        22.5446629651       16.8955868551       15.4889285227
  C        21.8492039780       18.0005524301       13.7579919536
  S        11.8815393930        9.2011031762       20.4847704960
  C        12.5019672367        6.6541776675       21.1072507363
  H        18.6322684496       17.6715816770       -6.5371522411
  H        17.8498447250       17.2426964289       -5.0091115529
  H        18.5048027244       15.9942699055       -5.9825783696
  H         5.7790434634       14.3457742449       10.7470604253
  H         4.5776539335       14.5811165434        9.4127372909
  H         5.0419127280       12.9501075256        9.8533227664
  H        22.6828507780       17.4148049569       13.3202436877
  H        20.9781163395       18.1157131631       13.1517619766
  H        22.2698547911       18.9669961937       13.9710400320
  C        11.6669231741        8.4384047762       22.1023163211
  N        11.8580036390        7.0687807384       22.2165717222
  O        12.7792172643        5.5310245012       20.8156536949
  S        10.7811546548        9.2076202212       23.4308923093
  C        11.7697749572        6.2005002532       23.4188549306
  H        11.5837043895        5.1555345257       23.0864506699
  H        10.8864133148        6.5313298393       24.0168361477
  C        13.0591323574        6.2395185995       24.1682025179
  H        13.6818558043        5.4466595337       23.9598682089
  H        12.8595606531        6.2254394300       25.2399853324
  H        13.6652053563        7.0902052212       24.0121759727
