352
 i =    95100, time =    95100.000, E =        25.2952467591
  H        10.1441731397        5.5285546379       31.7326648189
  C        10.3883838224        6.5127655052       32.0971516605
  H         9.5166307963        7.0507928187       32.3596959575
  C        11.0145960846        7.4759647592       31.1148647990
  C        11.1160942411        6.3630090460       33.4520552914
  C        11.5690017598        6.6701133433       29.9132163994
  H        10.3415816604        8.3033134102       31.0299046606
  H        11.9793044130        7.8614148487       31.4889820470
  H        10.9275576588        7.0467881186       34.2423457063
  H        10.9404674035        5.3458501644       33.9230396236
  H        12.1697736866        6.4932212161       33.3182488374
  C        10.4040280612        6.3509862321       28.9634331970
  H        12.0380711599        5.7886972153       30.2909237399
  H        12.3809246794        7.3552417714       29.5279577206
  C        10.8878253524        6.1491438348       27.5637850931
  H         9.9285993600        5.5609984925       29.5103882198
  H         9.6885190275        7.1113773091       29.0153049906
  C         9.8225346692        5.3341398858       26.7670317668
  H        11.8613682134        5.6670701184       27.5542030525
  H        11.0688609424        7.1144245850       27.1814909864
  C         8.5848704297        6.1587470297       26.3286231171
  H        10.2634168090        4.8303487112       25.9454973722
  H         9.4577473953        4.5889121179       27.4105759959
  C         7.4210842014        5.4429162130       25.5824515488
  H         8.1159681158        6.5742885002       27.2499314447
  H         8.9031813558        7.0540168365       25.8268295501
  C         7.0150467947        4.1188641879       26.2806513926
  C         7.8294239799        4.6952478740       24.3562104270
  C         6.2021104002        6.3807864033       25.1678003435
  C         7.2643378275        3.0148407015       25.4866934039
  C         6.5822727867        3.7878687857       27.6132711062
  C         7.7270774657        3.3682875788       24.2284677371
  C         8.2875184008        5.3827317133       23.2141288091
  H         5.6110968660        6.1087120419       24.2197511332
  H         6.5742455802        7.3141582811       24.9542371227
  C         5.2078210194        6.6836838334       26.2044943180
  S         6.9132403314        1.5462733559       26.3112366793
  C         6.3920303129        2.4074372862       27.6831806320
  H         6.2432683257        4.5180601685       28.3436584759
  C         8.0405224126        2.7409210437       23.0385075104
  H         8.3051034705        6.4794664369       23.2547254688
  C         8.4912156824        4.7643902702       21.9872577771
  H         5.1441092342        6.0481103621       27.0862980971
  H         5.3389702459        7.6971636602       26.5504723601
  C         3.7757555798        6.6410479766       25.6702585363
  C         5.9096933093        1.6082887581       28.8659221929
  C         8.4811610355        3.3918472065       21.8939986218
  H         7.9899342742        1.6821690207       23.0110583945
  C         8.9240219006        5.1083936835       20.7404129251
  H         3.6640366169        5.7416368928       25.0613158047
  H         3.6891301879        7.5366958796       25.0472591274
  C         2.7498433227        6.6054742999       26.7408443417
  C         5.9675084670        0.1856165261       28.9411525442
  C         5.4963286500        2.3446472652       30.1039616978
  C         8.8638278550        2.6508244778       20.6422536517
  C         9.1816866157        3.9895976755       19.9277233332
  S         9.4106862461        6.5610562184       20.0762495053
  H         1.8624939396        7.1072224172       26.2738104874
  H         3.0273628633        7.1242358830       27.6559656189
  C         2.2981153542        5.1682349528       27.1139567909
  N         6.3015064046       -0.7365516157       27.9426728381
  C         5.6483309305       -0.4407649482       30.1268027664
  C         5.1968146470        1.7320992666       31.3138111852
  H         5.5104680394        3.4192757374       30.1247225587
  C         7.7612926378        1.8479648120       19.9247647810
  C        10.2179197656        1.8700329692       20.7635939344
  C         9.6112829601        4.4005843452       18.6636650714
  C         9.7258975948        5.7815156032       18.5476850886
  H         1.4905729132        4.8908333941       26.4003596459
  H         3.0832310419        4.4038809415       26.9090851510
  C         1.5585263749        5.1377647524       28.4166104889
  S         6.4831595392       -2.1517916803       28.6053572406
  N         5.8603572297       -1.8095203380       30.0041281815
  C         5.3536504352        0.2360148371       31.4085883284
  H         4.9368384210        2.3559453144       32.1616639255
  H         7.3408076363        1.0484905084       20.5168212455
  H         8.1413237029        1.1568095532       19.2297456867
  C         6.6347846569        2.5756291850       19.1819086252
  H        10.4975337668        1.4751955039       19.8152800583
  H        10.0567908117        1.0143036084       21.4285330392
  C        11.4036953956        2.7520001905       21.2279394518
  H         9.8648047656        3.6307507315       17.9818001934
  C        10.1255045472        6.6166343418       17.3488499314
  H         1.0309804104        4.1785632349       28.5798135081
  H         0.8763740470        5.9263907793       28.5297791934
  C         2.5636643205        5.2093250028       29.5729299556
  C         5.1510882416       -0.6106725424       32.5869717773
  H         7.0376810225        3.3232715394       18.4977785933
  H         5.8309340825        3.0204511572       19.8181438913
  C         5.8323462146        1.6532616005       18.2823688573
  H        11.2610177754        3.2274083603       22.2353518729
  H        11.6901325462        3.5744777002       20.5444878101
  C        12.6921482632        1.8982434178       21.3267654943
  C        10.2656875726        8.0122513518       17.2788267877
  C        10.4130702564        5.8157338110       16.1806458915
  H         3.0225068886        4.1925071426       29.5831469789
  H         3.3572118819        5.8993379795       29.3613528771
  C         2.1013340399        5.4976143737       30.9792611373
  H         5.2606566004       -1.7228425989       32.4977307055
  C         4.9954595360       -0.2509800167       33.8737325367
  H         5.3720781288        0.9436977309       19.0081379167
  H         6.3581048812        0.9883657015       17.6579153432
  C         4.5507167730        2.3253941117       17.6348603471
  H        12.4723894605        0.9525742226       21.6863502555
  H        12.9557495861        1.7711378670       20.3063239351
  C        13.8222485918        2.7181837550       21.9636776945
  N        10.1844972144        8.9711417468       18.2894318935
  C        10.5809923136        8.5977610872       16.0465796308
  C        10.7439605354        6.4251276791       14.9526690084
  H        10.3059916392        4.6933230013       16.1986569169
  H         1.3258688984        4.7013786306       31.2802543495
  H         2.8773993326        5.2462760164       31.6831937121
  H         1.6324715388        6.4361014624       31.0261540263
  S         4.9373318536        1.3001357676       34.4753836095
  C         4.9514434339       -1.2421210805       35.0157173339
  H         4.6003928877        3.4212271522       17.7617154596
  H         4.6670923551        2.0687755554       16.6336902706
  C         3.1863150225        1.7950995935       18.1805596094
  H        13.2694530140        3.3377334091       22.7100599165
  H        14.2865740597        3.3692403652       21.2039773186
  C        14.8989282517        1.8386028250       22.6377387151
  S        10.1462260469       10.4572924341       17.6004176980
  N        10.6827733279        9.9871546974       16.1368535493
  C        10.8963551254        7.9103230864       14.8684412425
  H        10.8490104122        5.8341741186       14.0400478593
  C         4.7293320891        0.6822761271       36.1716132018
  N         4.7663512696       -0.6388178452       36.2631055500
  O         4.8948295881       -2.4235871885       34.7394828477
  H         2.3822317457        2.4737902035       17.8195017224
  H         3.1506571931        1.7311436621       19.2580063930
  C         2.9374294490        0.5287001534       17.3780698739
  H        14.5078728729        1.1630499037       23.3680107422
  H        15.2653690821        1.3045889890       21.8039529283
  C        15.9260083929        2.8215304545       23.2320425983
  C        11.2161539593        8.5744830109       13.6788114231
  S         4.4246024095        1.5831196438       37.6769559651
  C         4.9361659349       -1.4848883633       37.5014768630
  H         2.3717108351        0.7470329187       16.3833635334
  H         3.7787600566        0.0559581938       16.9128854091
  C         2.0354695286       -0.4830108641       18.0723824943
  H        15.6384806344        3.0912697032       24.2307305335
  H        15.8000340128        3.7622848250       22.6273767614
  C        17.3382917318        2.2493743780       23.2229548969
  H        10.9235342794        9.5850830950       13.8268110870
  C        11.6816953338        8.1631680413       12.4334393286
  H         4.1474942609       -1.2693720951       38.2749174153
  H         4.6754893868       -2.5155877070       37.1606228993
  C         6.3376642360       -1.2224177799       38.0955646096
  H         0.9793232473       -0.2624345252       18.0665752473
  H         2.3710709623       -0.5370656552       19.0395108263
  C         2.0751942565       -1.8325957934       17.3754141946
  H        17.9172110195        2.7369844976       23.9965120395
  H        17.2184169707        1.2369601696       23.4588734140
  C        18.0453089547        2.3900439148       21.8761833663
  S        12.2550517717        6.6537020669       11.8148296390
  C        11.8152419359        9.2978958733       11.4449685662
  H         6.4903519054       -2.1234514777       38.7521891965
  H         7.1410863804       -1.1091763719       37.3639803560
  H         6.2817042703       -0.3289673832       38.7203007555
  H         1.2569266599       -2.5429140694       17.5709727843
  H         3.0169996045       -2.3705136573       17.5844943510
  H         1.9416952856       -1.5872394680       16.3359407543
  H        19.0224200936        2.0143982888       21.9387089796
  H        18.0283013461        3.4440434540       21.5170210152
  H        17.3961038539        1.8515662696       21.2108908772
  C        12.4753479480        7.4741014093       10.2553430144
  N        12.3783123467        8.8070877463       10.2765513909
  O        11.3455375771       10.4579961751       11.6114623805
  S        13.1565161479        6.7564845972        8.8762814653
  C        12.4883552762        9.6842682093        9.1448014285
  H        12.6690905837       10.6894071936        9.3780987786
  H        13.4739478107        9.4613890842        8.6305045085
  C        11.2123683660        9.7475289238        8.3198050923
  H        11.3243162419       10.4075566966        7.4749772598
  H        11.0438815021        8.8110348166        7.8539946024
  H        10.3624434044       10.0838166172        8.9361107966
  H        21.9731079361       11.0402941296        3.3579287846
  C        22.6685026123       10.2612063985        3.2917470252
  H        22.1534224388        9.3071216785        3.0418907996
  C        23.2150283696       10.1102004832        4.7160175228
  C        23.8400701718       10.3610284746        2.2940576776
  C        22.0878021059       10.1020309011        5.7749534564
  H        23.7924117029        9.2194288453        4.7700228143
  H        23.9284851133       10.9412844970        4.8804572248
  H        24.2053596558        9.3719296090        2.1197586497
  H        24.6048192993       10.9123243865        2.7358748144
  H        23.5442727016       10.8501430893        1.3652672862
  C        21.4996110893        8.6888210266        5.8736158618
  H        22.4884410093       10.3031462995        6.7718734702
  H        21.4039080224       10.8930355755        5.6418088805
  C        20.4319476043        8.6674016352        6.9106836378
  H        22.3283975586        8.0391424419        6.2708915390
  H        21.1321606694        8.2575101975        4.9564602108
  C        19.1084056124        9.2090000429        6.3612612917
  H        20.7538845470        9.2452114148        7.8247626171
  H        20.2721984667        7.6252054591        7.2306738002
  C        18.3179769306        9.7594013339        7.5284022029
  H        19.3468565883        9.9700090516        5.6658616465
  H        18.6603514755        8.3398343432        5.9067230793
  C        17.1260498999       10.7139125180        7.1458537894
  H        18.9093422455       10.4462231296        8.1751422570
  H        18.0542831050        8.8316482725        8.0673796542
  C        17.5852859434       11.9977968043        6.4644546464
  C        16.6618935263       11.4628615693        8.3379141957
  C        16.0745210221        9.9341959026        6.4114971506
  C        17.1987405089       13.1398751338        7.2151786665
  C        18.1447910388       12.3820800188        5.2422839965
  C        16.8054551142       12.8099181481        8.4784667307
  C        16.0195438250       10.8276597784        9.4035032306
  H        16.5359448086        9.5313568129        5.6028928645
  H        15.8597825309        9.0437741151        7.0664172130
  C        14.8383088581       10.8548321473        6.1879949873
  S        17.4248152357       14.6093284513        6.3703280529
  C        18.0130610650       13.6700464628        4.9519045617
  H        18.6748964191       11.7250490171        4.5641247250
  C        16.5734437826       13.4846098276        9.6778241340
  H        15.7805414189        9.7759553981        9.2490318213
  C        15.8541759690       11.4926833911       10.6183728400
  H        15.1566547612       11.8996717564        5.8656587825
  H        14.3406433916       11.0662117826        7.0860650290
  C        13.7534888591       10.2019996223        5.3603775102
  C        18.4861990364       14.3412101617        3.6514675605
  C        16.0155873056       12.8175785169       10.7438985927
  H        16.6988626922       14.5296059136        9.7894236673
  C        15.4565105987       11.1187330352       11.8782377034
  H        12.8404869966       10.7020817544        5.4892141266
  H        13.5168405249        9.1536413715        5.6649037400
  C        14.1317361387       10.1240574613        3.8238223635
  C        18.3902504432       15.7274860890        3.4073957172
  C        18.9463667842       13.4831724140        2.5252926241
  C        15.8127789813       13.5061037987       12.0710103936
  C        15.2810561665       12.2133099053       12.6945488492
  S        15.0111241404        9.5728449779       12.5634421965
  H        14.6874851564        9.2600738740        3.5493380277
  H        14.8231005750       10.9516132859        3.7291305737
  C        12.8814330375       10.0620414645        2.9604186352
  N        18.1659493274       16.6583743239        4.4604507363
  C        18.6635870799       16.3186887006        2.1544547441
  C        19.0710910838       14.0070770426        1.2422069705
  H        19.1507164378       12.4584420960        2.6872009895
  C        14.6340678412       14.5039318070       12.0927267457
  C        16.9674143962       14.0787248527       12.8772542913
  C        14.8815895091       11.7957775309       13.9538803079
  C        14.6861148800       10.4419092867       14.0650954340
  H        12.6257629633        9.0321474733        3.0375050066
  H        12.1164739005       10.7943073027        3.2831819099
  C        13.2592185051       10.3737881098        1.4950736960
  S        18.1465113533       18.1284923121        3.7579100010
  N        18.6132507814       17.7649305971        2.2127715366
  C        18.8955378523       15.4923975775        1.0038614763
  H        19.2309498887       13.2904823088        0.4128620191
  H        14.8860283272       15.4067685561       11.4102816118
  H        14.6249725223       14.8312757447       13.1890651912
  C        13.2854263540       13.8537630768       11.6339188538
  H        17.2318639794       15.1034327105       12.5550112958
  H        16.7015983186       14.2078148674       13.9332227419
  C        18.2283659592       13.3029074343       12.8458667408
  H        14.6987693980       12.5029061173       14.7285559513
  C        14.2332422069        9.7208997166       15.3155662069
  H        14.2289846868        9.9849240893        1.2979557988
  H        13.1788105630       11.4412450165        1.3089721277
  C        12.2581701642        9.7936739840        0.5348652220
  C        19.0528120706       16.2006593645       -0.1993513216
  H        13.3189981594       13.0232454264       10.8620725388
  H        12.7719576783       13.3676052457       12.4620198579
  C        12.1811462869       14.8424425715       11.1576723187
  H        18.6828292923       13.1263506546       11.9057526041
  H        18.0330906955       12.3351031220       13.2146786332
  C        19.3644143761       13.8585150565       13.7419034217
  C        14.1289490223        8.2805184865       15.3575660414
  C        13.9234726132       10.3877556015       16.5734337638
  H        11.8696599263        8.8206110054        0.9082405417
  H        11.4750787870       10.5106417227        0.3126089321
  C        12.8696728924        9.6183827497       -0.8639831334
  H        18.6515085655       17.1866760244       -0.2523795409
  C        19.3556671525       15.7330558375       -1.4189714958
  H        12.7133097854       15.5208649256       10.4493849381
  H        11.7879302298       15.4605645414       11.9399123855
  C        11.0689765031       14.1422057278       10.3799555389
  H        18.9439271156       14.2905279837       14.6298826794
  H        20.0317208747       13.0119673984       13.9474160979
  C        20.1651290126       14.9994982549       13.0999511234
  N        14.3631514419        7.3170223375       14.3514483845
  C        13.7904159139        7.5916264721       16.4717958544
  C        13.6196804433        9.7270085793       17.7056691874
  H        14.1100391382       11.4739977616       16.7091880827
  H        12.1699195029        9.0263344184       -1.4247608772
  H        13.9346790119        9.4295441678       -0.8856758839
  H        12.8036016658       10.5820265856       -1.2997151582
  S        19.7219297020       14.0839463485       -1.8794527284
  C        19.3732363712       16.7116176861       -2.4974446290
  H        10.5689318627       14.8984866845        9.7219130081
  H        11.4681045446       13.3797461742        9.6722949647
  C        10.1028900870       13.3995549259       11.3437542527
  H        19.7298220993       16.0380926964       13.3421005795
  H        20.1002618849       14.8847804345       12.0334724422
  C        21.6539621227       15.0161526694       13.4677568640
  S        14.2653580906        5.8436181804       14.8685316337
  N        13.9095379225        6.2291838691       16.3566583519
  C        13.6347219107        8.2282598550       17.7587093227
  H        13.4412266874       10.2724763318       18.5778364827
  C        19.7391136004       14.7099019842       -3.5414230587
  N        19.6978685394       16.0806723356       -3.6686815135
  O        19.0006476491       17.8733507272       -2.4147297551
  H        10.1142776682       12.3551069765       11.2087151157
  H        10.4097811810       13.6480880969       12.3868239144
  C         8.6596538314       13.8642145760       11.0075092693
  H        21.6641098637       14.7398137011       14.4888062060
  H        22.3233432020       14.3668209951       12.9288033657
  C        22.2940706660       16.3796898198       13.3139880867
  C        13.3205170577        7.4728323460       18.9825287449
  S        20.3847912957       13.8251793704       -4.9941733937
  C        19.6096345832       16.8008162287       -4.9879954375
  H         8.0157192879       13.3974917737       11.7522147117
  H         8.6419703875       14.9249064280       11.1140366764
  C         8.1094773094       13.3734163599        9.5675064725
  H        22.0943508873       16.7497808910       12.2901229815
  H        23.3721965642       16.3340757058       13.2839090936
  C        21.9259225542       17.5085364243       14.2733595012
  H        13.4558052576        6.4089463905       18.7940233425
  C        12.8367486944        7.8642177060       20.2636259107
  H        20.3936171202       16.4190388657       -5.7401650308
  H        20.0002249296       17.8147783470       -4.8422111118
  C        18.1868241086       16.8791636390       -5.5380075870
  H         7.6604828770       12.4372458472        9.6652418767
  H         8.8793285075       13.2640818178        8.8565567911
  C         6.9659570234       14.3569132852        9.2105112415
  H        22.5061377248       18.4157252285       14.0509485837
  H        20.8736729370       17.6438847292       14.1039227303
  C        22.1310517673       17.0912498815       15.8047358776
  S        12.3084505353        9.4415972331       20.8353954970
  C        12.6203757571        6.8024667203       21.3183998564
  H        18.0734676979       17.7767922359       -6.2099395917
  H        17.4236861704       16.9613416673       -4.7505883454
  H        17.9824333426       16.0289469132       -6.1359722447
  H         6.1300023121       13.8905795555        8.7773568845
  H         6.6692387838       14.7821116254       10.2108795889
  H         7.4170586835       15.2584348995        8.7314811631
  H        22.2520718646       17.9822803170       16.4263639025
  H        21.2525189025       16.4712482160       16.0605061526
  H        23.0170979691       16.4826554146       15.9097177783
  C        11.7276548290        8.6691396892       22.2452343796
  N        12.0419241426        7.3475289575       22.3895792873
  O        12.7944410283        5.5996959537       21.2143246727
  S        10.9069837998        9.5837116620       23.5285544653
  C        11.7588269244        6.5792791034       23.5771500708
  H        11.4590678189        5.5250163212       23.3897354611
  H        10.9333810962        7.0288543097       24.1678680731
  C        13.0485751706        6.5311600608       24.3711083918
  H        12.9840434061        5.6147703958       24.9869422354
  H        13.1257269311        7.3748336209       25.0168955115
  H        13.8062940633        6.3958464914       23.5862453092
