352
 i =     7900, time =     7900.000, E =        25.2217055216
  H        11.9523194273        6.9576187214       32.0293813254
  C        11.8172957408        5.9318890891       32.2596677577
  H        12.7788267961        5.4791395316       32.1589845190
  C        10.8774203306        5.4443478524       31.1624222768
  C        11.2256632204        5.6736670355       33.6256281152
  C        11.5668156832        5.4116150093       29.7784656405
  H        10.3966450660        4.5081293326       31.3379170621
  H        10.0961863115        6.1735051490       31.1990504678
  H        10.1911363107        6.0648863948       33.6699018787
  H        11.2645179641        4.5936755300       33.7824694321
  H        11.7757354077        6.2410489192       34.3317977614
  C        10.5247989637        5.4384044248       28.6845906593
  H        12.0574740968        4.4147665396       29.7648677753
  H        12.3679694115        6.1358538846       29.6432879062
  C        11.1130572781        5.1749133979       27.2688966889
  H         9.6670515189        4.8219690546       29.0127936370
  H         9.9760893123        6.4148975248       28.6823415208
  C         9.9963178743        4.5898851000       26.4329378292
  H        12.0187562688        4.5799329337       27.2035128082
  H        11.4477705928        6.1691584691       27.0158367794
  C         8.8984274923        5.6012744391       25.9464621477
  H        10.4080428731        3.9764777751       25.6031226325
  H         9.5869588530        3.8689197711       27.0673858298
  C         7.5730893245        5.0057975252       25.4004455545
  H         8.6568441307        6.3203146109       26.7220416173
  H         9.2456269187        6.2543964460       25.1908990918
  C         7.1443866959        3.6627772778       26.0878778051
  C         7.8178129977        4.2271887940       24.2104867156
  C         6.3820607462        6.0018362940       25.3539122378
  C         7.3081484086        2.5223303397       25.3692859547
  C         6.6660275940        3.2960861946       27.3965704193
  C         7.7161945135        2.8325384413       24.1021210290
  C         8.2342419681        4.8581255576       23.0537970631
  H         6.5940081276        6.7631681235       24.6503567609
  H         6.4209182198        6.4814708339       26.3216673471
  C         5.0021151577        5.3584955399       25.0835304230
  S         7.0280325581        1.0330303688       26.1682322175
  C         6.5766229262        1.9538961821       27.6223106373
  H         6.5250167703        4.1377147685       28.0883643618
  C         7.9784767314        2.1767482342       22.9607906208
  H         8.2690107630        5.8996047515       23.1344039971
  C         8.5342224033        4.1689568841       21.8759849144
  H         5.0138381954        4.7592002566       24.2001886650
  H         4.7695850799        4.5914755039       25.8363588926
  C         3.9413517240        6.5093049259       24.8728351502
  C         6.1344101139        1.3333872840       28.9240788593
  C         8.4186154840        2.8220013360       21.8124927620
  H         7.8472805717        1.1093849978       22.9093192165
  C         9.0204789794        4.4793818029       20.6165431808
  H         3.2723715091        6.2679228005       24.0756242614
  H         4.4270707465        7.3548996071       24.4935596345
  C         3.0887324493        6.8464923181       26.0376967249
  C         6.1361950065        0.0046861783       29.3885695716
  C         5.6252220811        2.2480071330       30.0090754889
  C         8.8131508285        2.0443286489       20.5431438879
  C         9.1427700352        3.3280834727       19.7849656242
  S         9.4086666300        5.9791406386       19.9195387736
  H         2.4349792099        7.7827318785       25.8431112160
  H         3.7845677227        7.3603674755       26.6733187820
  C         2.2684989896        5.7450859005       26.5848305675
  N         6.3474887963       -1.0780009964       28.4864144649
  C         5.7120727268       -0.4833132125       30.6277855841
  C         5.2146480398        1.8006206007       31.2884279068
  H         5.5228101560        3.3371609361       29.8046004166
  C         7.6979675972        1.2925729244       19.8186312733
  C        10.1959764590        1.2750461396       20.8432552359
  C         9.4681253617        3.7867147427       18.4610831038
  C         9.6450641313        5.1658730922       18.4006145692
  H         1.5701008168        5.3971044250       25.8283811155
  H         2.8297489397        4.8594450364       26.8409842748
  C         1.3831936048        6.1039059345       27.7499513888
  S         6.3044235832       -2.4555320906       29.3643736194
  N         5.7185986239       -1.8679906775       30.7626313024
  C         5.3473393451        0.4012758871       31.6732028327
  H         4.9264899313        2.5737772318       31.9364997432
  H         7.2794353686        0.4263770491       20.3012969669
  H         8.0974102942        0.8814885134       18.8952512612
  C         6.3857108261        2.1561898786       19.5173887121
  H        10.5753996792        0.8895365037       19.8952096478
  H         9.9578498636        0.5328781198       21.6147405191
  C        11.3809977862        2.0895191137       21.3582460153
  H         9.4215122719        3.0862025688       17.6593061905
  C         9.9094440749        5.9531684709       17.1668444329
  H         0.4584944141        5.5190592869       27.6676000946
  H         1.0693892976        7.1321547842       27.6231790273
  C         2.0954441282        6.0258866246       29.1083446035
  C         5.0427963160       -0.0920314823       32.9453086102
  H         6.5229424958        2.9161350401       18.7714167297
  H         6.1425874824        2.7303451237       20.4053462128
  C         5.2468429181        1.2893663322       18.9726653411
  H        11.0382275196        2.3262465041       22.3637870961
  H        11.4912924797        3.1074488008       20.8674511988
  C        12.7839935363        1.3969674697       21.3090532828
  C         9.9299402567        7.3925080131       17.1114544389
  C        10.2155997519        5.2798012695       15.8798130594
  H         2.9605845293        5.3343217333       29.0379268368
  H         2.4717851878        7.0202915011       29.3195156902
  C         1.1719805881        5.5874993177       30.3491044755
  H         5.1987104767       -1.2047615112       32.9584696330
  C         4.8136875662        0.4564736031       34.1806464195
  H         4.9114059357        0.6423573102       19.7721639512
  H         5.6385522087        0.6277538230       18.1916595734
  C         4.1575984343        2.1891885713       18.4572550952
  H        12.8621547797        0.6141215411       22.0737074828
  H        12.8322317770        0.8038182981       20.3850796256
  C        13.8132284463        2.4814501069       21.3349701091
  N         9.7171377497        8.2703006922       18.1483042677
  C        10.1860233720        8.0795923660       15.9352906647
  C        10.4466807144        5.9979583814       14.6891030992
  H        10.0963049850        4.2345801476       15.7426621215
  H         0.3351737201        4.9216886125       30.0250298761
  H         1.6630343341        4.9747918352       31.0863781020
  H         0.8255997503        6.4435615496       30.8413235694
  S         4.3884947901        2.1038117275       34.6164644732
  C         4.8295788165       -0.4081812207       35.3174323436
  H         4.0314388288        3.0391089196       19.1366654622
  H         4.3681115696        2.5592115569       17.4944000886
  C         2.7949714606        1.4652191151       18.7234049583
  H        13.4484558139        3.3068407323       21.9851102840
  H        13.7813943480        2.9638881276       20.3233937936
  C        15.2353141842        1.9394741188       21.6268052847
  S         9.7774622192        9.8297747168       17.6597673911
  N        10.1143930950        9.4813894322       16.1215275351
  C        10.4230042963        7.4707145934       14.6483305916
  H        10.8098243093        5.4421799519       13.8507294048
  C         4.1332379774        1.5584848571       36.2463710583
  N         4.5107260541        0.2979844551       36.4487513328
  O         5.0695559410       -1.5944889803       35.2440961204
  H         2.0290043918        2.1640646639       19.1155224778
  H         2.8459745181        0.8895832220       19.6155199931
  C         2.1528413742        0.6283578185       17.5873556440
  H        15.4102307406        0.8838015081       21.4510739584
  H        15.9097122959        2.4950191012       20.9574889944
  C        15.5281973765        2.2935744638       23.0701758799
  C        10.7560560482        8.2534468971       13.4628384933
  S         3.6969098942        2.6042864906       37.5980240469
  C         4.3477957090       -0.3876824021       37.7188999084
  H         1.1805531649        0.3862367084       17.9231567460
  H         2.0169879418        1.0717895742       16.6485190063
  C         2.9006159474       -0.7631553777       17.4345090763
  H        14.6708122342        1.7906334112       23.6111111569
  H        15.4443328665        3.3452440188       23.2812066147
  C        16.8715666537        1.9030310112       23.5869473035
  H        10.5295231035        9.1697614549       13.7563843757
  C        11.2383245031        7.9929557558       12.1937294796
  H         3.9450797628        0.3197517336       38.4968287069
  H         3.5909840489       -1.1423696007       37.5987626023
  C         5.6169347681       -0.9182292075       38.2321308086
  H         3.1072241940       -1.0543918435       18.4436433690
  H         3.8149272441       -0.6654038749       16.8529494384
  C         2.0181391583       -1.7894329897       16.7414823903
  H        17.0257186485        2.2526868986       24.6141216397
  H        16.7974522090        0.8318631954       23.6009121413
  C        18.1366424341        2.2606160214       22.7680279028
  S        11.7409105271        6.4860994212       11.5444098995
  C        11.4443469748        9.1330237089       11.2440365151
  H         6.3951431601       -0.1592837789       38.3107432897
  H         5.5047867393       -1.2410977109       39.2271549598
  H         6.0017265236       -1.6069337534       37.5980714420
  H         1.1366104665       -2.0632975772       17.3842632947
  H         2.4790992794       -2.6872451491       16.2882752906
  H         1.5091215250       -1.3322913822       15.8902261205
  H        19.1001644436        2.2369049214       23.3862398766
  H        17.9761536397        3.2590011501       22.2164193845
  H        18.1923469520        1.5870139674       21.8615853258
  C        12.2220744456        7.3677722752       10.1180028118
  N        12.0331200259        8.6755533886       10.1755981539
  O        11.0889555185       10.3221981315       11.4667653987
  S        12.9452051740        6.5951162766        8.7457606711
  C        12.2777349893        9.5240577390        9.0156086464
  H        12.5239543852       10.5866961532        9.2713414682
  H        12.9766891735        9.0971402625        8.2851133519
  C        10.9620470131        9.5208911368        8.2012562606
  H        10.1492376610        9.4938247162        8.9289588254
  H        10.9198224744       10.3557603098        7.5944016792
  H        11.0107642501        8.6357182369        7.6521624116
  H        21.7021888438       11.3088401158        3.5275228752
  C        21.9713704901       10.2500530312        3.7993854493
  H        21.0126167070        9.6788843875        3.7574407794
  C        22.6540771887       10.1855259635        5.1874984124
  C        22.9273924618        9.7112720419        2.7004524854
  C        21.6662353150       10.6969321159        6.2851727165
  H        22.9177891024        9.1077847310        5.3754375310
  H        23.5228048364       10.8421613948        5.2099606984
  H        23.5674462189        9.0106155098        3.1397318997
  H        23.6068190941       10.4399837740        2.2120648844
  H        22.5262823938        9.2466325429        1.7897915434
  C        20.9731773010        9.5576153288        6.9136250560
  H        22.1369481488       11.2188716474        7.0424393310
  H        20.9853359098       11.3651345506        5.7874715128
  C        20.1424455953        9.9037726763        8.1784132812
  H        21.7897362966        8.8868142883        7.2023372694
  H        20.3706321753        9.0659180304        6.0635679157
  C        18.8983265729       10.8359939303        7.9214076221
  H        20.7869316294       10.3562097720        8.8533062829
  H        19.8206495824        9.0274794893        8.7240097076
  C        17.7534272465       10.0267371227        7.3376824249
  H        18.5693933489       11.1972038703        8.9240331880
  H        19.2412795340       11.7254007115        7.4071495345
  C        16.5100110169       10.9460186435        7.0935030228
  H        17.5161597066        9.3018522433        8.0791876128
  H        18.0544860444        9.5312201347        6.3891722213
  C        16.9282404892       12.3104395989        6.4043192717
  C        16.0657399752       11.7019940815        8.2894697958
  C        15.3596893967       10.0971305357        6.4530392277
  C        16.7179401821       13.3988424460        7.1730657426
  C        17.4846243738       12.5721365187        5.1638917394
  C        16.2630184552       13.0022437695        8.4465187043
  C        15.6775367224       11.0458167188        9.4592127191
  H        15.6146774833        9.6172744741        5.4749883808
  H        15.0413426676        9.2801687650        7.1203218427
  C        14.0681497115       10.8594460963        6.2659380117
  S        17.1195276655       14.8652668516        6.4552874230
  C        17.5975394728       13.9564033056        5.0289750414
  H        17.6537576508       11.7836540049        4.4735291942
  C        15.8631422995       13.5838675049        9.5877555493
  H        15.5076483755       10.0125231376        9.4215230778
  C        15.2645471067       11.6065611548       10.5791165587
  H        14.2463257811       11.8838024303        5.9188848108
  H        13.4867948205       10.8773390902        7.1777806713
  C        13.2433396218       10.1277985988        5.1841671231
  C        17.9895727467       14.6021845905        3.8021433024
  C        15.3115549116       12.9400327112       10.7000214468
  H        15.9548032991       14.6958427850        9.6292813426
  C        14.8208357594       11.1688975543       11.8283529599
  H        12.2339212940       10.3525268410        5.4891610219
  H        13.3182231929        9.0633294225        5.2763848120
  C        13.5171679545       10.5701424198        3.6900225781
  C        18.0044402645       15.9866398957        3.5265436422
  C        18.4835005790       13.7528349620        2.6378547237
  C        14.8252273787       13.5894594100       11.9373191383
  C        14.5123482157       12.2393272115       12.6722238388
  S        14.5625472833        9.6894590140       12.4643077386
  H        14.5057788468       10.9639853475        3.6239833599
  H        12.9931915895       11.3669248661        3.3553367835
  C        13.2216697100        9.4813007908        2.7135337434
  N        17.6626521793       17.0378057588        4.4213175229
  C        18.3029586221       16.5070379780        2.2530675139
  C        18.8395451278       14.2218624193        1.3817837663
  H        18.6874233674       12.6799556620        2.7892375077
  C        13.5310708922       14.4470752006       11.6441290432
  C        15.9624567050       14.3720173259       12.7095941382
  C        13.9497094525       11.7671568310       13.8504276663
  C        14.0120107611       10.4058166882       13.9711894589
  H        13.5637091108        8.5221261596        3.0122604905
  H        12.1439879488        9.3148605147        2.7011955385
  C        13.4908490113        9.9082147993        1.3113502711
  S        17.7709192503       18.4687748385        3.6472422806
  N        18.1967718013       17.8984281007        2.2075845697
  C        18.7060058466       15.6577674412        1.1335938711
  H        19.2689562812       13.5324557520        0.6582904244
  H        13.7781205423       15.1635122707       10.8986014460
  H        13.4549983820       14.9879406112       12.5891660989
  C        12.2483778312       13.6466169456       11.2789089818
  H        16.2932064125       15.2384373163       12.1442903954
  H        15.6152647743       14.7089230792       13.6951101729
  C        17.1608512060       13.5336468407       13.1277577549
  H        13.8401317182       12.4024780330       14.6633638677
  C        13.8072994650        9.5363667369       15.1976873375
  H        14.5961409726        9.8478569082        1.1474194205
  H        13.3810909297       10.9742388270        1.2291417296
  C        12.7160667702        9.1059256666        0.2235321268
  C        18.9207626002       16.2414902841       -0.1357054704
  H        12.3123040259       13.1172181735       10.3441823867
  H        12.0960328081       12.8966815871       11.9936455180
  C        11.0312271192       14.4452616070       11.2455655626
  H        17.4846617061       12.7580619210       12.3437501149
  H        16.7772761727       12.9256035696       13.9402836418
  C        18.2936760180       14.3032782214       13.6475400917
  C        13.8392663641        8.1401344103       15.1945563506
  C        13.5605351412       10.1792579855       16.5015975048
  H        12.7620893895        8.0492445791        0.5502330057
  H        11.6357526288        9.3290320207        0.1285347858
  C        13.4496080154        9.3229117167       -1.0853323169
  H        18.8844844095       17.2866984377       -0.2465149747
  C        19.2395184934       15.7203265249       -1.3998788240
  H        11.2480917618       15.1462887728       10.4068587571
  H        11.0482158491       15.1205577964       12.1370980253
  C         9.7458468540       13.7060173542       10.9810177914
  H        18.6123603188       15.0573290491       12.9445862234
  H        17.9395522975       14.9019605369       14.5328978379
  C        19.5422068213       13.5026912340       14.1554331225
  N        14.1865942117        7.3165825375       14.1049244684
  C        13.6983161117        7.4081778789       16.3753508944
  C        13.3488089582        9.4747818433       17.6683922142
  H        13.5763814171       11.2750468206       16.5599851792
  H        13.5816846122       10.4004691470       -1.3041644036
  H        12.8740830100        8.8887921866       -1.9533809653
  H        14.4564308010        8.8445588593       -1.1260382950
  S        19.4805429466       14.0577259162       -1.7661733838
  C        19.3207499281       16.6454711704       -2.5878119508
  H         9.8966669852       12.6386795378       11.2051209869
  H         8.9571437413       14.2310229805       11.5606957805
  C         9.2818343498       13.7144907496        9.5055981357
  H        19.6242790116       12.8035494252       13.3930640577
  H        19.3691242564       12.9531409514       15.1040861380
  C        20.8933103788       14.2870862383       14.2391009387
  S        14.1084983686        5.7789876439       14.5773346540
  N        13.7331244921        6.0155019605       16.1086786419
  C        13.3625154340        7.9851512453       17.6378820090
  H        13.2571228669        9.9554691319       18.6222037549
  C        19.6551183173       14.5727931587       -3.4536479353
  N        19.6083575135       15.9126189032       -3.6540164919
  O        19.2052292829       17.8641662555       -2.5579920887
  H         9.4485284820       14.7218204795        9.1180457107
  H         9.8912508715       13.0236157299        8.9634552074
  C         7.8383826970       13.2230441922        9.2824199958
  H        21.6425190709       13.8342492996       14.8687296978
  H        21.3279532764       14.5390968899       13.3154948980
  C        20.5867324961       15.7161477567       14.9829359189
  C        13.1803513679        7.2585554913       18.8830386228
  S        20.3426389844       13.4783242027       -4.6818625050
  C        19.9210146879       16.5826309989       -4.9021160846
  H         7.8685799444       12.5825029983        8.3697160673
  H         7.5904665131       12.5753384710       10.1512303031
  C         6.8739729710       14.3984632119        9.2531393954
  H        20.2146889285       15.6972341529       15.9676786589
  H        19.7023218974       16.1530699244       14.5190108628
  C        21.6791340697       16.8152280988       14.8310258738
  H        13.3751969468        6.2805469190       18.7203355770
  C        12.7721777957        7.5651563151       20.1570364628
  H        20.6387436504       15.9979843347       -5.4113581400
  H        20.4916291492       17.5015237746       -4.6728108023
  C        18.6641756656       16.7949652690       -5.7387046143
  H         7.0808028746       14.8984175516        8.2531241986
  H         7.0429176353       15.1686806538        9.9775379743
  C         5.3968582130       13.9410494637        9.2979157494
  H        21.4520949457       17.5736854854       15.6137804896
  H        22.6337335493       16.3687010822       15.1479902238
  C        21.9759712676       17.5027665154       13.4490881860
  S        12.1509101423        9.0755254892       20.8236034692
  C        12.6645761957        6.4339642790       21.0875296504
  H        18.3996219786       17.9097802291       -5.8834150435
  H        17.8826140010       16.2045161664       -5.1909423880
  H        18.7028259355       16.2074853422       -6.6992728179
  H         4.7151905845       14.5762222108        8.7159167569
  H         5.3515666294       12.9720013497        8.7700658703
  H         5.0590328639       13.8335924578       10.3723368944
  H        21.0239635311       17.8171303531       12.9706682220
  H        22.4826232991       18.4351587991       13.5292915267
  H        22.5341188370       16.8090935380       12.7743297033
  C        11.7721272726        8.0959652776       22.2648646192
  N        11.9971459782        6.7671302300       22.1833429104
  O        12.9130778238        5.2670804519       20.7389434200
  S        10.8734984148        8.7361599098       23.6624930855
  C        11.6719849305        5.8555996862       23.2975249918
  H        11.6248619129        4.7995317392       22.9582364811
  H        10.7272729253        6.1483704773       23.7504631943
  C        12.8094458586        6.1608712307       24.3550358123
  H        12.4245144560        6.7660478804       25.1547628675
  H        13.7970658279        6.5101668374       23.9815812219
  H        13.0763474214        5.1856228087       24.8532256569
