352
 i =    23800, time =    23800.000, E =        24.5682271127
  H        10.0656909290        7.6461930940       32.4566944303
  C        10.7365655177        6.8868705943       31.9504042647
  H        11.7192329172        7.3551725516       31.7566890760
  C        10.0944624823        6.4020605869       30.6718413690
  C        11.0125058043        5.8012617101       32.9725249074
  C        11.1214596817        5.7370311050       29.7811358559
  H         9.2041997121        5.9445398603       31.0873017031
  H         9.8188943581        7.2186455309       30.0543198485
  H        11.7272155575        5.0585176650       32.6562296789
  H        11.4642865086        6.2348241773       33.8429571531
  H        10.0214005793        5.3607833155       33.2114424266
  C        10.5259984439        4.7017633129       28.8122590440
  H        11.8648601520        5.2694686939       30.4500875476
  H        11.7633084252        6.4393252761       29.2490211526
  C        10.8632760498        4.9656808583       27.3691547876
  H        11.0501785965        3.8219282032       29.1532100137
  H         9.5247828913        4.3877176988       29.0210555387
  C         9.8927160715        4.4708882326       26.3831753910
  H        11.9241444199        4.6205790909       27.1844045101
  H        10.9263172637        5.9637301030       27.2791449987
  C         8.6452534198        5.3925027564       26.2978788036
  H        10.3448573704        4.4538334835       25.4125802362
  H         9.5572374220        3.5481109701       26.6735232350
  C         7.4829374504        4.7385714835       25.5588890408
  H         8.2022464089        5.7203509913       27.2630308737
  H         8.9590332735        6.2305049562       25.7066553467
  C         7.0320510604        3.4414046056       26.2285675606
  C         7.8352515482        4.1261424977       24.3037854080
  C         6.2816011445        5.6870248096       25.4309915362
  C         7.2129005159        2.3781106799       25.3456042158
  C         6.5173048027        3.0248831611       27.4781537175
  C         7.6931896259        2.7942184545       24.1369197978
  C         8.2527727575        4.7099151286       23.1586461382
  H         6.5206261413        6.4967088778       24.7528444359
  H         6.1583176877        6.1574643044       26.4015491515
  C         4.9860774526        5.0780643579       24.8166700151
  S         6.5687849803        0.8332515866       25.9799498040
  C         6.1541423613        1.6920243672       27.5006673756
  H         6.4541980979        3.8073159736       28.3077211524
  C         8.0825146033        2.1292050435       22.9848006169
  H         8.4896755932        5.7429363490       23.2958076961
  C         8.5645022186        4.0788216821       21.9593485438
  H         5.1541374881        4.8410075189       23.7471629097
  H         4.6874428562        4.2320502996       25.4405896635
  C         3.7969145845        5.9697172733       24.8456510828
  C         5.7130929127        0.9288068508       28.7054317343
  C         8.4678743027        2.7560760807       21.8314169262
  H         7.9730011088        1.0634743814       23.0554489783
  C         8.9368931473        4.4729258664       20.6792222266
  H         3.0353460838        5.6167537651       24.1338715193
  H         4.0607559918        6.9748642974       24.4589871812
  C         3.0883723147        5.9778677237       26.2387197897
  C         5.8945840049       -0.4672129077       28.9946956417
  C         5.3192834847        1.7396446194       29.8810179607
  C         8.8920682332        2.0543331573       20.5680394757
  C         9.0480772913        3.4228785723       19.8107852095
  S         9.2166296304        5.9935918618       19.9713278025
  H         2.1190504348        6.6068964653       26.2314602533
  H         3.7929561764        6.5436189900       26.9140297723
  C         2.8676104486        4.6190061124       26.9654695614
  N         6.3669223780       -1.3989000108       28.0918243027
  C         5.5918654483       -1.0738109789       30.1931017054
  C         5.0807969257        1.2290768127       31.1562507461
  H         5.2869401407        2.7592301128       29.8509783260
  C         7.7156584142        1.1395773168       20.0419055101
  C        10.2229047348        1.2256960957       20.5972977916
  C         9.5041891926        3.8594452359       18.5198266103
  C         9.5649484827        5.2287458892       18.4511959762
  H         2.5689674775        3.8860765775       26.2813549599
  H         3.7866256515        4.2841750240       27.4373228672
  C         1.7521865734        4.5545271152       27.9523794462
  S         6.4521128227       -2.8571197675       28.8260702093
  N         5.8288315597       -2.4530487551       30.2315001175
  C         5.1810831994       -0.3051642428       31.3216267611
  H         4.8326211085        1.9086239278       31.9247204986
  H         7.2851397843        0.6183547066       20.8286532219
  H         8.0529787965        0.2727731336       19.3878310548
  C         6.4626567621        1.8805872009       19.4599310170
  H        10.2694616100        0.8094568387       19.5535773835
  H        10.0510335838        0.3419707547       21.2134907808
  C        11.5350853964        1.9654585460       20.9240136291
  H         9.7182174821        3.1891518171       17.6419631563
  C         9.8816998854        6.0548425948       17.2475310576
  H         1.7906319648        3.4204096825       28.0771493167
  H         0.8246684729        4.7919404102       27.4428078166
  C         1.9477042413        5.4233650984       29.2017013558
  C         4.9586542835       -0.9732962027       32.5738944949
  H         6.7616002584        2.6398282913       18.6951990140
  H         6.0977063074        2.5809530967       20.2040992125
  C         5.3054506429        0.9543530794       18.9565131364
  H        11.5084751677        2.3320055688       21.9652616783
  H        11.5781821273        2.8683255582       20.3451192523
  C        12.8068778237        1.1706893838       20.7316525749
  C         9.9050137079        7.4788919857       17.2235440191
  C        10.1038664060        5.3610277775       15.9238628135
  H         2.8299690517        6.0719114895       29.0665782712
  H         1.1744975177        6.2294992702       29.2674754162
  C         2.0244284090        4.6807283809       30.5263475159
  H         4.9531508209       -2.0467922222       32.5445438397
  C         4.6541375361       -0.4914944859       33.8426135832
  H         5.0920219320        0.3272490690       19.7808173195
  H         5.6340433701        0.2812832792       18.1800825480
  C         4.0375518887        1.6500619503       18.5339146650
  H        12.9218208243        0.3697260588       21.4880553513
  H        12.7962404512        0.6290413179       19.8097110037
  C        14.0886595437        2.0205408727       20.7481878399
  N         9.7028871809        8.3655663389       18.2601205634
  C        10.1824145843        8.1910170482       16.0714018244
  C        10.2997473414        6.1063991927       14.7903896947
  H        10.0965589488        4.3003921390       15.8478561046
  H         2.0578002050        5.3117407173       31.3551841904
  H         1.2068461572        3.9181941224       30.8236082319
  H         2.9971579529        4.2290833938       30.5286821235
  S         4.3065124442        1.1292691265       34.2214644929
  C         4.5953861824       -1.4235473133       35.0139814790
  H         3.8157408286        2.2363965739       19.3882203911
  H         4.3235617094        2.3692872564       17.7274089680
  C         2.8331167258        0.7990924521       18.2761548719
  H        13.9263833518        2.9233252564       20.1967301549
  H        14.9412187347        1.5687278305       20.2222107231
  C        14.6063770345        2.2980892239       22.1526006303
  S         9.6977266294        9.9142844938       17.7076519255
  N        10.2285923962        9.5929158321       16.2464186015
  C        10.4128083944        7.6004599000       14.7972021223
  H        10.2729147954        5.5332850735       13.8935839611
  C         4.0344528457        0.6124804327       35.8891187592
  N         4.1820079753       -0.7029149721       36.0795226714
  O         4.8698218239       -2.6398965820       34.9405023882
  H         2.0202839145        1.5445627975       18.0717307428
  H         2.5285389842        0.2351214007       19.1741758369
  C         2.8540690061       -0.0363661156       16.9604167621
  H        15.2395691480        3.1722048995       22.0747480437
  H        13.8084165312        2.6334600204       22.7738554423
  C        15.2725477383        1.1958483838       22.8880980231
  C        10.7772522043        8.3324378951       13.6471502246
  S         3.6681062079        1.6499762413       37.2701193662
  C         4.2424705243       -1.4066528843       37.3860888043
  H         2.7348642211        0.6367286011       16.0844400411
  H         3.8259364277       -0.4183379737       16.9202429660
  C         1.6736182366       -1.0852963281       17.0048320860
  H        15.4759524646        0.2937321862       22.3725445363
  H        14.5300916786        0.7518102940       23.5973185288
  C        16.4076897854        1.7074542592       23.7475388433
  H        10.5620095762        9.3620562832       13.7386401628
  C        11.2618513698        8.0240521847       12.3719582552
  H         3.4401526708       -1.1007517846       37.9770124568
  H         4.0396215078       -2.4831291876       37.2700664408
  C         5.5554859930       -1.2547748454       38.1398584840
  H         1.4042376057       -1.2943965219       15.9338398263
  H         0.7861822141       -0.5943962861       17.3288593253
  C         1.9394534759       -2.3540570414       17.8976254340
  H        16.0127396583        2.6393138158       24.1315585699
  H        16.4490225724        1.1314781639       24.6748516220
  C        17.7009672564        1.7411657198       23.0125961563
  S        11.7579709994        6.5105707214       11.6709867221
  C        11.4085674949        9.1430863997       11.4567376529
  H         5.2399610491       -1.6088859068       39.1168448376
  H         6.2458432227       -1.8780967724       37.6246961363
  H         5.8603143458       -0.1945433175       38.1275445517
  H         2.7731785124       -3.0183076400       17.5086530943
  H         0.9787163710       -2.9614307118       17.8460197057
  H         2.0237027241       -2.0557456379       18.9058109823
  H        18.5307120779        1.6661259294       23.6659679792
  H        17.6955297014        2.5954340818       22.3879822660
  H        17.7463360632        0.9376707381       22.3762429783
  C        11.9064300586        7.3455855161       10.0984241296
  N        11.9460464469        8.7257655505       10.2478841744
  O        11.1360586107       10.3274178942       11.7811978986
  S        12.4707209667        6.6850231668        8.6076723400
  C        12.2663284007        9.6156073830        9.1577939179
  H        12.6697180417       10.4440098563        9.7627991710
  H        13.0116482026        9.3060809842        8.4155350414
  C        10.9967761263       10.1083252275        8.5081700953
  H        11.1319503334       11.2058397385        8.2569357975
  H        10.7692412650        9.4972084062        7.6186492428
  H        10.1140870591        9.9279883373        9.1055941768
  H        20.7319634973       11.1859216098        3.0583585814
  C        21.2094764150       10.2031905863        3.1769358924
  H        20.3957302662        9.5421760530        3.3898527015
  C        22.0906286521       10.2394471516        4.3717330395
  C        22.1244824678        9.8038002988        1.9348826192
  C        21.4422711389       10.3897951150        5.7521520626
  H        22.8244728582        9.4450879554        4.4111772889
  H        22.7822553543       11.1049621563        4.2152564110
  H        21.4802754701        9.8131974388        1.0435467476
  H        22.5279042823        8.7765932976        2.1839867386
  H        22.9221702699       10.5373808767        1.7263201412
  C        20.7530159924        9.0913335016        6.3048409325
  H        22.1847943487       10.7332242674        6.4197057586
  H        20.7110112637       11.1683350822        5.5958259005
  C        20.1910491417        9.5269044709        7.7124013713
  H        21.4333745416        8.2058689056        6.2682634358
  H        19.9049870357        8.7891417225        5.7969089112
  C        18.9384233066       10.4826729426        7.6271997246
  H        21.0203646731        9.9717000684        8.2540663356
  H        19.9824419727        8.5743349399        8.2033825377
  C        17.5514467824        9.8547276357        7.3237220917
  H        18.8894186736       11.0085252670        8.5647111961
  H        19.1623078814       11.2756121142        6.9045688030
  C        16.3486148494       10.8229140090        7.1200411220
  H        17.2089555814        9.0626166589        7.9566688582
  H        17.6011354999        9.4431301867        6.2519144936
  C        16.7905727958       12.0728276120        6.4332143506
  C        15.9963040542       11.5446669125        8.3831763336
  C        15.1879975512       10.1326282888        6.3454129185
  C        16.6702539581       13.2230043385        7.2048050782
  C        17.3068936929       12.3733511176        5.1529761729
  C        16.1612845173       12.8839020086        8.4404081902
  C        15.4523458248       10.8504442215        9.4980211784
  H        15.4781272070        9.8746167108        5.3583431224
  H        14.9144388238        9.2234925262        6.9064226279
  C        13.9301548788       10.9504015766        6.1126452967
  S        17.1727378185       14.6354512357        6.3772943541
  C        17.5275320152       13.6792799580        4.9385471389
  H        17.4126840325       11.5290601922        4.3511306143
  C        15.8987782279       13.4443881840        9.6201408960
  H        15.3745951175        9.7909102704        9.3933994160
  C        15.1871737130       11.5273714316       10.6884923550
  H        14.2064595918       11.8842404363        5.6410043604
  H        13.5919982968       11.2535236343        7.0871656935
  C        12.7803998453       10.3118057697        5.2031672868
  C        17.9884341110       14.3462224666        3.7023465447
  C        15.3626124902       12.8392245791       10.7973814128
  H        16.0960658323       14.5633121862        9.6370400987
  C        14.9216538382       11.1389096000       11.9520525542
  H        11.8371892974       10.7089186937        5.6709446930
  H        12.8094942650        9.2391750820        5.3119960620
  C        12.7189698197       10.7994829953        3.7810857886
  C        18.1130042489       15.7349573432        3.4000575695
  C        18.4937043445       13.4474784851        2.6248765907
  C        14.9788352984       13.5215574191       12.0374109298
  C        14.7171237079       12.1937818416       12.7841817129
  S        14.6915519768        9.6065499464       12.7527874405
  H        12.9637033012       11.8786197540        3.6629338649
  H        11.6684773720       10.9566393978        3.5433253141
  C        13.3970682642        9.9211408848        2.7595566901
  N        17.7050909781       16.7289776537        4.2976988890
  C        18.3442213377       16.1418364398        2.0674648494
  C        18.7191018392       13.9382647887        1.3160558122
  H        18.5835928939       12.3642173651        2.7531830457
  C        13.7408148509       14.4724130143       11.7570401277
  C        16.2113895221       14.2552581812       12.5721212961
  C        14.3500855505       11.7677404996       14.1049932598
  C        14.2692802414       10.4012308697       14.3006743065
  H        14.4723509522        9.7603012740        2.8903462874
  H        13.0987212245        8.8690922834        2.9201608085
  C        13.1438500893       10.3782474964        1.2770749544
  S        17.9733065929       18.1539383444        3.5050449532
  N        18.3083054322       17.5716416363        2.0243773397
  C        18.5452055339       15.3060104836        0.9228719325
  H        18.8169034450       13.2176649954        0.5303063415
  H        13.9315656208       15.0906120198       10.8966528271
  H        13.4650963010       15.1226811349       12.5649053000
  C        12.5299966893       13.6690910195       11.2584017846
  H        16.6425527368       14.9190532903       11.8490715490
  H        15.8882467875       14.7243104471       13.5178016980
  C        17.3836070681       13.3487636498       13.0015485082
  H        14.1676629733       12.5442413753       14.8138566362
  C        13.9216629472        9.5669823109       15.5036418499
  H        13.5673153965       11.3683023006        1.1257760330
  H        12.0464789474       10.4498213095        1.0716163754
  C        13.6436334282        9.3412679499        0.2737672165
  C        18.8572314071       15.9126453891       -0.3602078024
  H        12.7888431657       13.0304746500       10.3604768350
  H        12.1492390710       12.9563567632       12.0055742249
  C        11.3591209470       14.4978496258       10.7504767854
  H        17.7948524969       12.7673209640       12.1449055426
  H        17.0484729265       12.7062765741       13.7920491719
  C        18.5592300671       14.1274378178       13.5737914097
  C        13.7661083891        8.1722777530       15.5416361950
  C        13.6981100422       10.2962427353       16.7807738569
  H        14.7229797716        9.1329844316        0.3999900151
  H        13.1335001854        8.3963997824        0.4424478306
  C        13.2745757524        9.6862330232       -1.1970601783
  H        18.8157189731       16.9611908027       -0.3921083251
  C        19.1622388899       15.3902224093       -1.5637930956
  H        11.6341847302       14.5505543286        9.7312153983
  H        11.4399301993       15.4731232694       11.2645365793
  C        10.0555440018       13.6928240450       10.9062421902
  H        18.8316333859       14.8571992244       12.8105636099
  H        18.0793121683       14.7855132305       14.3339061909
  C        19.6672952266       13.3454322388       14.3033986689
  N        13.9775531650        7.3230019676       14.4285155806
  C        13.4831931855        7.4908514868       16.7048520266
  C        13.2662411205        9.6545492563       17.9298441117
  H        13.8766301147       11.3563160907       16.7401695340
  H        14.0492609249       10.2165717562       -1.6681490803
  H        12.2953172423       10.2531266328       -1.1896814879
  H        13.1423793241        8.7687144826       -1.7356979656
  S        19.4683831469       13.7824131911       -1.9386848708
  C        19.3914240231       16.2951344321       -2.6519355706
  H        10.1134774786       12.7013468231       10.5274241089
  H         9.8169863427       13.5988160781       11.9255625446
  C         8.9044193291       14.4078308078       10.1893570666
  H        19.8399322100       12.3945678678       13.7771623976
  H        19.4216527928       13.0093565540       15.3580498781
  C        21.0165885470       14.0267863350       14.4748029029
  S        13.9582427863        5.7909363972       14.9475227696
  N        13.4275334390        6.0689731234       16.4741127528
  C        13.1240834737        8.1806904106       17.8813699420
  H        13.2351449486       10.2031887618       18.8838123119
  C        19.8584057660       14.2810369059       -3.5070929037
  N        19.7726615543       15.6057878834       -3.7472101548
  O        19.3077464136       17.4866049666       -2.5559385960
  H         8.2979190279       15.0459429609       10.8886034025
  H         9.4165053027       15.0435831153        9.4754478636
  C         7.9728553849       13.3491503828        9.5878498164
  H        21.7668488164       13.3739683880       15.0618913011
  H        21.3358662982       14.1792120473       13.4927366707
  C        20.9750813716       15.4201905705       15.1453812206
  C        12.8788654183        7.3687403469       19.0091413078
  S        20.2567087411       13.1587874018       -4.9378465605
  C        19.9167708261       16.2872356910       -5.0753067224
  H         8.6374848856       12.8290133516        8.8516895896
  H         7.6332118392       12.5815314137       10.2569501180
  C         6.7398081346       13.9755268251        8.8879074718
  H        21.1139859372       15.2911312356       16.2384541260
  H        19.9697807078       15.8061266156       15.2194329639
  C        21.7998263183       16.5479875000       14.5374181489
  H        13.2182898753        6.3324649300       18.9163072237
  C        12.4311284266        7.6248179489       20.2307864587
  H        20.6685602707       15.7271650412       -5.6961382268
  H        20.2747810899       17.2989435286       -5.0469590567
  C        18.5419624935       16.2491899309       -5.7206559483
  H         6.4800558527       13.6175929384        7.9590344233
  H         7.1193462545       15.0288369152        8.7578967989
  C         5.6083283245       14.2465657048        9.8690307793
  H        22.8390640152       16.2737158527       14.3451638606
  H        21.4652706516       16.7648141091       13.5542501654
  C        21.8213288403       17.8681667335       15.4334930827
  S        11.9167919324        9.1594610550       20.8551038190
  C        12.4588093899        6.5176474352       21.2635940725
  H        18.5234931236       16.7744270178       -6.6794199232
  H        17.7392109843       16.7477989177       -5.1866814157
  H        18.1979214923       15.2391844306       -5.9863216222
  H         4.7480032850       14.4426150304        9.3058140254
  H         5.5412666855       13.3900992524       10.5506471473
  H         5.8688567813       15.1443345090       10.4122315168
  H        22.5284010044       18.5626071711       15.0123306100
  H        20.8029305689       18.3298134989       15.6032925407
  H        22.2780977338       17.6524000049       16.3693518013
  C        11.9097567369        8.3379702993       22.4363140487
  N        12.0416573226        6.9833774451       22.4469703994
  O        12.6960348554        5.3375225210       20.9623680857
  S        11.2056712134        9.0295168231       23.8994944281
  C        11.8285664049        6.1251678771       23.6118109683
  H        11.6981843370        5.1455272900       23.1216905476
  H        10.8891723712        6.2399433081       24.1881623418
  C        13.0022231004        6.0773938700       24.5879310860
  H        12.9580498188        5.2180632518       25.3081329356
  H        13.2687783651        6.8516509585       25.2716473459
  H        13.8862436134        5.9903453408       23.9798334864
