352
 i =   100000, time =   100000.000, E =        25.2720289609
  H        10.3264254286        4.6842229947       31.4502526995
  C        10.4077744113        5.6508867851       31.9146482174
  H         9.5121652083        6.2420299446       32.0498255746
  C        11.2444993440        6.5772763932       31.0127928142
  C        11.0386335989        5.4816801172       33.3104523419
  C        12.1935872962        5.8746671542       30.0480008598
  H        10.6838016850        7.2722231930       30.4088285789
  H        11.8269940933        7.1722753002       31.6378098820
  H        10.4928384775        4.8918300852       34.0444316863
  H        12.0339646278        4.8992839518       33.2046848334
  H        11.4457992469        6.4329737589       33.5940567524
  C        11.4522491079        5.1893248390       28.8761429616
  H        12.6653429445        5.1616990775       30.6605622753
  H        13.0360136258        6.4924468126       29.6307437564
  C        10.6168038595        6.0144154214       27.9048477264
  H        12.1949721869        4.7714088136       28.2467413390
  H        10.8615286168        4.4595829053       29.2600104116
  C         9.8067022691        5.2063848116       26.9381669376
  H        11.2467440207        6.7768913210       27.4624034167
  H         9.8826693764        6.6582295052       28.4743042136
  C         8.6322889371        5.9290790115       26.5133937484
  H        10.3923921927        5.0526373929       26.0124738915
  H         9.5740669521        4.2250759466       27.4058422928
  C         7.6621395033        5.1918616560       25.6212049410
  H         8.0114715357        6.2952604452       27.2766812406
  H         9.0076508059        6.7974553692       25.9834228948
  C         7.2034458722        3.7848247124       26.2782909241
  C         8.1489278160        4.4045145645       24.4151865932
  C         6.5171756511        6.0723447672       25.1080495023
  C         7.3788647249        2.6662155825       25.4758747138
  C         6.6049271755        3.3771985444       27.4698779512
  C         7.8728372187        3.0707769846       24.2335215764
  C         8.6123942420        5.0632064652       23.2740119818
  H         5.9963937649        5.5327821972       24.2835985583
  H         6.8548317187        7.0255769073       24.6433861624
  C         5.4681560384        6.4870366617       26.1168099796
  S         6.9311554692        1.1231224405       26.1879267044
  C         6.3391597738        2.0164327200       27.6276691173
  H         6.3101193948        4.1088813726       28.2027614418
  C         8.1484157568        2.4267468459       23.1201290823
  H         8.5710324512        6.1667456720       23.3080152119
  C         8.8007080596        4.4559939395       22.0854645263
  H         5.4432315354        5.7655368842       26.9873168886
  H         5.6624550185        7.4962496261       26.5091887563
  C         4.0152617413        6.6614629732       25.4910048114
  C         5.9002667666        1.3356002882       28.8978053468
  C         8.5554858979        3.0952975034       22.0095376336
  H         7.9825849487        1.3740006788       23.0134845869
  C         9.1265075892        4.8290131060       20.7855660047
  H         3.7261681594        5.9150349899       24.7771731251
  H         3.8914298019        7.6519888858       25.0664809300
  C         2.8439930748        6.5448273176       26.3823569566
  C         5.9204978781       -0.0540850943       29.1491975006
  C         5.4313899613        2.1272828010       30.0701175369
  C         8.8652407651        2.3816958845       20.7079359425
  C         9.1023438939        3.7268424801       19.9447785826
  S         9.4887794690        6.3136746925       20.0112567993
  H         2.0646305935        6.6414947649       25.6138382222
  H         2.6552129314        7.3164773423       27.1362248218
  C         2.6401641886        5.1896433669       27.0708287313
  N         6.4234179522       -1.0978628888       28.2794390217
  C         5.5808205243       -0.6141991006       30.4111118349
  C         5.1397852086        1.5795963897       31.2732154400
  H         5.3893357985        3.1704724380       29.9642199396
  C         7.6237608320        1.5873514097       20.1565523271
  C        10.1073370443        1.4298645898       20.8148333192
  C         9.4712823833        4.1781841421       18.6163127722
  C         9.6567187729        5.4986576305       18.4993546587
  H         2.6814629750        4.4967435346       26.2296382611
  H         3.5133234294        5.0142495653       27.6838684967
  C         1.2852273608        4.9651654195       27.8263396432
  S         6.4973162332       -2.5166746193       29.0178357249
  N         5.7919873946       -2.0146340183       30.4328676417
  C         5.1454969050        0.1389524915       31.5188185628
  H         4.8739277880        2.2707986540       32.0410642586
  H         7.4652045213        0.6996219520       20.7206541679
  H         7.9276207980        1.3001482077       19.1438607893
  C         6.2564992568        2.3130298623       20.1435823544
  H        10.1576138745        0.9296318618       19.8327694833
  H         9.9170839697        0.6300284953       21.5399570013
  C        11.3854678918        2.1519365509       21.2257754020
  H         9.6858801503        3.4739423920       17.8143856003
  C        10.0412906468        6.2157311542       17.2545329561
  H         1.1911700638        3.9018000482       28.1055675762
  H         0.4695060288        5.3456959110       27.1816784939
  C         1.3064368215        5.7298087785       29.1034540939
  C         4.8895333319       -0.5250759068       32.7782214532
  H         6.3323495615        3.2690691643       19.6813377444
  H         5.9707481758        2.4302737424       21.1520280664
  C         5.1174244106        1.5170046268       19.4294519674
  H        11.2030927805        2.7181092303       22.1726629045
  H        11.6564870892        2.8131308103       20.3601346819
  C        12.5897941895        1.2037261620       21.4997711048
  C        10.1625930629        7.6256121199       17.0687741070
  C        10.3592380896        5.4630183333       16.0309339896
  H         1.5126707260        6.8330041441       29.0730637250
  H         0.2530858379        5.6202500479       29.4397115641
  C         2.1700267665        5.2018993740       30.2493262663
  H         4.8151243578       -1.6193058128       32.6801742796
  C         4.6810495968        0.0654253451       34.0181626874
  H         4.7499308513        0.7258169868       20.1211101321
  H         5.4477398079        0.9165713759       18.5198476629
  C         3.8839388988        2.3732083800       19.2835663659
  H        12.5023023320        0.3693431602       22.1390456194
  H        12.7331988821        0.6184838651       20.5645039228
  C        13.8567853967        2.2260221609       21.6219616123
  N         9.9622349623        8.5261891117       18.1201509679
  C        10.5163652663        8.2668873751       15.9312561287
  C        10.6439828589        6.0703864107       14.8245786678
  H        10.1985645682        4.4180621634       16.0802345592
  H         1.5961264314        4.6412338983       31.0119645417
  H         3.0984787586        4.7110517889       30.0003720232
  H         2.4036543604        6.0371363213       30.9365390088
  S         4.5291165993        1.7084272825       34.5469242979
  C         4.5715364679       -0.9018488341       35.1060016334
  H         3.4805047820        2.6806971671       20.2446710913
  H         4.2040020167        3.3292279721       18.8809093624
  C         2.8157814517        1.5020865579       18.6036647678
  H        13.5845006727        3.0950080722       22.1068631472
  H        14.0747380887        2.4136334719       20.5617207022
  C        14.9894389397        1.6055182020       22.2846503722
  S         9.9968687027       10.0812711675       17.6260451744
  N        10.5540601118        9.7076218363       16.1304690356
  C        10.8555417700        7.5962271767       14.7762112351
  H        10.9455636608        5.5596382715       13.9733983741
  C         4.3743568387        1.0295338792       36.1401853033
  N         4.3420789029       -0.3260731265       36.2449856005
  O         4.5234134096       -2.1386114484       34.9125923552
  H         3.0841934437        1.2799715389       17.5830353667
  H         1.9018697722        2.0801668882       18.5375601332
  C         2.5453158402        0.0956701024       19.2227640558
  H        14.7274394940        0.7213975901       22.8800141983
  H        15.7869215368        1.4876411045       21.5258233725
  C        15.6654893250        2.6199760429       23.2595907391
  C        11.1742098591        8.3967214610       13.5570864598
  S         4.1230476444        2.0472182512       37.5317846155
  C         4.2415935006       -1.0844947305       37.5094341795
  H         3.4349835277       -0.4896553612       19.1556862462
  H         2.3664927416        0.1762688210       20.2787788010
  C         1.4697385258       -0.6803194648       18.5593711153
  H        15.0263533877        2.8988000222       24.0610675724
  H        15.9112575277        3.5020871724       22.7287474054
  C        16.8335757452        2.0070959762       24.0531721227
  H        10.6609549735        9.2921516393       13.5656337010
  C        11.6717532676        8.1118682681       12.3157312480
  H         3.7310746463       -0.5608608712       38.2769617528
  H         3.6754298292       -2.0290899349       37.5313909112
  C         5.6380809180       -1.3295337186       38.0358495098
  H         0.5364535930       -0.0664847927       18.5911501357
  H         1.2779930969       -1.4922948279       19.2114592337
  C         1.9339712735       -1.2300897713       17.1825031731
  H        17.0596753404        2.6511529002       24.9320119371
  H        16.6618255449        1.0202522452       24.4638233687
  C        18.1137230723        1.9905373591       23.2594983996
  S        12.2815324098        6.6075540719       11.7337423083
  C        11.8530705287        9.2563403351       11.3815163159
  H         6.3118780875       -1.8390159941       37.3383137628
  H         6.0957021345       -0.3764114707       38.2640321906
  H         5.5581456896       -1.8684279292       39.0234797667
  H         2.9586922837       -1.7029944918       17.2250410971
  H         1.9216616548       -0.4811910115       16.4254772828
  H         1.2243506146       -2.0511321459       16.9261116256
  H        18.7428278891        1.1319932993       23.5874112761
  H        18.7900196298        2.8558143550       23.4259515246
  H        17.9269123502        1.9873987976       22.1343259580
  C        12.8754722920        7.4880160999       10.3439259146
  N        12.4747862453        8.8512972378       10.3003157864
  O        11.4428422193       10.3727182897       11.6655312493
  S        13.8681051708        6.9907817585        8.8995930866
  C        12.5192724703        9.7951448680        9.1975484962
  H        12.6882544273       10.8020918948        9.4708645435
  H        13.3374712058        9.5374917511        8.5307678250
  C        11.2833675556        9.5622936084        8.3120356494
  H        10.4364228844        9.4229085547        8.9675345327
  H        11.1517633019       10.4799227398        7.6747383137
  H        11.5376559083        8.7147965136        7.6719660179
  H        21.5305348453       11.1971172225        4.0436537306
  C        21.9428365550       10.2368087874        4.0646848833
  H        21.1242190813        9.6031582906        3.9358418156
  C        22.7451469885       10.0285546615        5.3753048333
  C        22.7731678373       10.0299156892        2.7740700714
  C        21.9962796505       10.3580964714        6.6973275122
  H        23.2225019599        9.0140757700        5.4616324397
  H        23.5527146201       10.7722419948        5.4581017014
  H        22.1898626740       10.0439814474        1.8206912876
  H        23.1092705859        8.9999062922        2.8514107138
  H        23.6722932755       10.5976630249        2.8592458185
  C        21.1901538340        9.2375722422        7.1019682700
  H        22.7950381722       10.5420383084        7.4158728116
  H        21.4680708114       11.3158077993        6.6851822920
  C        20.2874499540        9.3329006591        8.3399579005
  H        21.8454743416        8.3726759403        7.2339216037
  H        20.6085432009        9.0070591634        6.2344692517
  C        19.1046348146       10.2784568660        8.1000609779
  H        20.8098453369        9.6860674575        9.2314566258
  H        20.0787320564        8.3471489861        8.7202524131
  C        17.9357018581        9.5395769327        7.5494597767
  H        18.7851414641       10.6406553256        9.0972968685
  H        19.4473238340       11.1156307563        7.4472454585
  C        16.6867317892       10.5533142624        7.3267945924
  H        17.7754851814        8.7356173217        8.3100575711
  H        18.3265146483        9.0836723519        6.5959253150
  C        17.2053320833       11.8471895495        6.6755973030
  C        16.3545768687       11.3646484163        8.5322538934
  C        15.4615462800        9.9386609939        6.5168528352
  C        17.0333048255       12.9451090596        7.4741030870
  C        17.6540285941       12.2065759297        5.3892476329
  C        16.4562717546       12.6884617604        8.6840620176
  C        15.8483438998       10.6446469551        9.6281914899
  H        15.7088331512        9.4162178407        5.6331297732
  H        15.0262156122        9.1378602441        7.1478582501
  C        14.4282512507       10.9960053143        6.1290577833
  S        17.4258590690       14.4048131903        6.6495317815
  C        17.8168236517       13.5543251204        5.2033533407
  H        17.7643908781       11.4112013446        4.6244913401
  C        16.1174483922       13.3568563305        9.8116107741
  H        15.8735063366        9.5391982907        9.5886925277
  C        15.4624887675       11.2816281482       10.7429964903
  H        14.9204020995       11.9296916684        5.7640342393
  H        13.9682000313       11.4067866546        6.9937718856
  C        13.4205384138       10.4014824153        5.1687801818
  C        18.1872834575       14.2786326268        3.9175829169
  C        15.5717060643       12.6148410519       10.9369483183
  H        16.2846429280       14.4195092609        9.9381225659
  C        15.0620547981       10.8877870213       12.0254251650
  H        12.5205161701       10.9648127782        5.1929365461
  H        13.1199036015        9.4082395327        5.5671745078
  C        13.9980558643       10.4739924602        3.8155340513
  C        18.1343625338       15.6642150982        3.6570972315
  C        18.5948494162       13.4539185057        2.7914963645
  C        15.2423135362       13.3321832126       12.2559794715
  C        14.8977306301       11.9598999382       12.8454744175
  S        14.8575783382        9.4265309419       12.8761390988
  H        15.0503201462       10.2122359150        3.7538461843
  H        13.9744148808       11.5464852577        3.5329109686
  C        13.2138674681        9.8249897062        2.6809264656
  N        17.8231966889       16.6951296259        4.6631287078
  C        18.3133448066       16.2101395696        2.4035171092
  C        18.7735855228       13.9761289000        1.5165381105
  H        18.8490889888       12.3899919869        2.9176050426
  C        14.0254140901       14.3188448912       12.1232487951
  C        16.4059251882       14.0491352090       13.0253296770
  C        14.5925678132       11.6513791964       14.2037011912
  C        14.4322362321       10.2927559512       14.3502251933
  H        13.3553749363        8.7745288465        2.7320100997
  H        12.1365857486        9.9696242317        2.8646792559
  C        13.4995784119       10.1526838404        1.2341114462
  S        17.6453006872       18.1285317497        3.9232135329
  N        18.1106740332       17.6095073818        2.4120716305
  C        18.5565894710       15.4391938762        1.2199968484
  H        19.0847275684       13.2857973547        0.7570437628
  H        14.3478595811       15.3207056165       11.6522245842
  H        13.7379710372       14.4231716866       13.1455868231
  C        12.8710817315       13.6659632026       11.3324342288
  H        16.8022704582       14.7308872589       12.2206415618
  H        16.0287304659       14.5612452358       13.9421524323
  C        17.6366034710       13.2258591112       13.5638942190
  H        14.4019441496       12.4506737596       14.9335595672
  C        14.0707030616        9.5731184827       15.6529308455
  H        14.3989538631        9.7602708360        0.8636928539
  H        13.6090071427       11.2887260051        1.0353969954
  C        12.3550154657        9.6392751043        0.2937007780
  C        18.7871280534       16.1120405773       -0.0578436339
  H        13.2392894855       13.4761479726       10.3030463695
  H        12.6852544523       12.6471213203       11.7127773222
  C        11.6017292318       14.5951311675       11.4430693049
  H        18.0690216179       12.6727449030       12.7217217371
  H        17.3953746669       12.4700544028       14.2993814151
  C        18.7895486593       14.0351010638       14.0809130833
  C        13.9322222523        8.1757112361       15.6664422428
  C        13.8153533747       10.3032863412       16.9004737707
  H        12.2770026753        8.5113166840        0.2596910113
  H        11.4106471424       10.2110651803        0.5209578354
  C        12.7215135160       10.0496112421       -1.1052828244
  H        18.6360064258       17.1557300428       -0.0435223284
  C        19.3044482073       15.5631772664       -1.2502896840
  H        11.9464403376       15.5955991561       11.2554545830
  H        11.1826157098       14.6480610049       12.4308643556
  C        10.4830317494       14.1699254280       10.5434879074
  H        19.0636924752       14.7508981812       13.3839318585
  H        18.5060149559       14.4058225481       15.0806306040
  C        20.0353043758       13.1992113327       14.3920280208
  N        14.2565738825        7.3277122133       14.6109005347
  C        13.6478124105        7.5112571184       16.8131281386
  C        13.5165265181        9.6159396430       18.0616705788
  H        13.8290745595       11.4311511874       16.9522655402
  H        12.8273524138       11.1628925750       -1.2249857569
  H        11.9030342494        9.8052236743       -1.7333024416
  H        13.6627900573        9.6107377588       -1.3009766047
  S        19.5258370911       13.9393259598       -1.6940703144
  C        19.5580162658       16.5775757745       -2.2735029687
  H        10.4186401701       14.8809654334        9.7684859145
  H        10.8564571497       13.3025111446       10.0978040337
  C         9.2413469701       13.7152580475       11.3252837565
  H        20.4025910158       12.5017455273       13.6583516112
  H        19.7495051665       12.5247476164       15.2296009896
  C        21.1139828689       14.0389428359       14.9780540635
  S        14.1923780259        5.8120856527       15.1781725606
  N        13.6475897441        6.1329349089       16.6702773510
  C        13.3461350811        8.1374380990       18.0197433404
  H        13.3981924609       10.1746589442       18.9364362654
  C        19.8425702294       14.5054178156       -3.3574997496
  N        19.8588995514       15.8728894511       -3.3728643785
  O        19.3671620118       17.7645097353       -2.0799690433
  H         9.4980063927       12.6315123151       11.4847945249
  H         9.2317115951       14.2331076811       12.2859043622
  C         7.9532387638       13.9797145618       10.5419481076
  H        20.7717659838       14.6136382766       15.8399297819
  H        21.8672287084       13.3043959977       15.2631990755
  C        21.7481883508       15.0673072942       14.0600645751
  C        13.2036042356        7.2861303231       19.1617733093
  S        20.2661755371       13.5703807006       -4.8180271436
  C        20.1027503802       16.5793460599       -4.5705996683
  H         7.2092930176       13.4876393142       11.1656535389
  H         7.7318149868       15.0173218253       10.4627744012
  C         7.8406488571       13.2718756373        9.1872985756
  H        21.4261980800       14.7984507213       13.0675912901
  H        22.8313808916       15.0582474365       14.1528856342
  C        21.1571694734       16.4144821493       14.5412734256
  H        13.5539323104        6.3095981702       19.0735361729
  C        12.5545960696        7.4684785273       20.3230242330
  H        20.8954628923       16.1535296779       -5.1440439125
  H        20.3770089175       17.6194954970       -4.4565256912
  C        18.8406371587       16.5130660536       -5.4263044961
  H         7.7630657017       12.2156645979        9.2818537136
  H         8.7612413478       13.2824901255        8.6365980877
  C         6.7854372053       13.9391287776        8.3277796491
  H        21.1864147192       17.0750465792       13.6730321271
  H        20.0725989901       16.4620658093       14.7998691565
  C        21.9096714559       17.0253394628       15.7307284766
  S        11.8499091709        8.9059514417       20.7598285811
  C        12.5796600716        6.3588692119       21.3228544514
  H        18.8031822462       17.3983717102       -6.1236683606
  H        17.9928946079       16.5673634639       -4.8230591335
  H        18.8226678912       15.5079189011       -5.8968727625
  H         5.7895332888       13.8251334648        8.7549670335
  H         6.9319350498       14.9999309452        8.3288700768
  H         6.8015968937       13.7217011660        7.3153784478
  H        21.7430302944       16.3028897193       16.4827560556
  H        22.9721311444       17.1444587600       15.5729907780
  H        21.4875386402       17.9336684065       16.2562405141
  C        11.7333357026        8.1469038598       22.3813718681
  N        12.0303684806        6.8416786501       22.4168641848
  O        12.8930827837        5.1397644367       21.1698407963
  S        11.0055812535        8.9249488329       23.8033908712
  C        11.9332266369        6.1341943970       23.6347111777
  H        11.7555706963        5.0924669135       23.4107386274
  H        11.0397379305        6.3781332777       24.1830393068
  C        13.1793680327        6.2492692377       24.5409524623
  H        13.3406761206        7.2251185659       24.9538169950
  H        14.0356733978        5.8245867004       24.0294692481
  H        12.9888282445        5.7167862882       25.4540868501
