352
 i =    13900, time =    13900.000, E =        25.1679503851
  H        12.0094820259        7.5866264079       32.4832753429
  C        11.8553254292        6.4876058011       32.3839416734
  H        12.7131250278        5.9990228547       32.0178124260
  C        10.7951834857        5.9891318980       31.4433907795
  C        11.5814815935        5.9047065092       33.7793357387
  C        11.0911096188        6.4491257155       29.9916053333
  H        10.6305742653        4.9407729365       31.5909799435
  H         9.8341204894        6.4805629929       31.6932361225
  H        12.3388615535        5.2471991896       34.0922545603
  H        11.5052783438        6.7578477467       34.4398342630
  H        10.6511477129        5.2616031017       33.8328519467
  C         9.9479718645        6.0198996405       29.0570523394
  H        12.0514439939        5.9805182003       29.6954823684
  H        11.2060683910        7.5239664511       29.8309430633
  C        10.5246834076        5.8525867451       27.6056355082
  H         9.5483658434        5.0576941431       29.4117240084
  H         9.1532517972        6.7820776735       29.0447089430
  C         9.5788492906        5.1993298821       26.5847970464
  H        11.4500510260        5.2865537700       27.5253137068
  H        10.7593493095        6.8162890234       27.1663034315
  C         8.2925478678        6.1039864566       26.3609282163
  H        10.1236233840        5.1004963417       25.6300604404
  H         9.1808338289        4.2163153632       26.7915774718
  C         7.0936087003        5.4316860319       25.5873659025
  H         7.8679118832        6.5399664135       27.2224874948
  H         8.5471802395        6.9432636036       25.6799788631
  C         6.8359450255        4.0799126667       26.1907115987
  C         7.4855436621        4.7165933228       24.2748902622
  C         5.8723312856        6.4099221227       25.3615947153
  C         7.1808920417        2.9818590796       25.4310268472
  C         6.3584950520        3.6913862993       27.4598858748
  C         7.6050482072        3.3514123291       24.1832851027
  C         8.0542377226        5.4082011726       23.1782854443
  H         6.1859158176        7.1822893804       24.6184223783
  H         5.6665705486        7.0480094797       26.2050624856
  C         4.6193015413        5.7807549922       24.7939191228
  S         6.8500175923        1.4720211480       26.2977614065
  C         6.2824757944        2.3141242306       27.7348314084
  H         6.0520159712        4.4426556328       28.1997796482
  C         8.1482135033        2.8190174839       23.0179027134
  H         7.7994758640        6.4330268993       23.1047321554
  C         8.5947826438        4.8926436044       22.0715585770
  H         4.9745286500        5.3144743698       23.8206588401
  H         4.2002979080        4.8902834345       25.1748663706
  C         3.3717605826        6.6805395658       24.8787018580
  C         5.8855646840        1.6495195959       29.0561681703
  C         8.6548498717        3.5341235623       21.9205199281
  H         8.2111326628        1.7654958218       22.9969535642
  C         9.0410889558        5.3308467001       20.8437197335
  H         2.5892774645        6.2331196774       24.3489778946
  H         3.4378940570        7.6417151633       24.3526929858
  C         2.7520950909        6.7666897694       26.3359999139
  C         5.8922236728        0.2699756783       29.2407505337
  C         5.3920348900        2.4905072169       30.2178575305
  C         9.0161322329        2.8947520338       20.6705224630
  C         9.2139182146        4.2431926181       20.0144386704
  S         9.2496774024        6.8557096661       20.0343440131
  H         2.0159512428        7.4966956517       26.3653685120
  H         3.5100002224        7.0383484456       27.0228571072
  C         2.2349329211        5.4022313552       26.7646748099
  N         6.1612957653       -0.7169801563       28.2887758813
  C         5.6160334668       -0.2343729899       30.5388882214
  C         5.0035077629        1.9425551766       31.3685875476
  H         5.3313953382        3.5642171613       30.0458615750
  C         7.9065552632        1.9915624127       19.9165473088
  C        10.3300842974        2.0937165811       20.7854371010
  C         9.4160555039        4.6197614125       18.6988519991
  C         9.5191119993        5.9617976336       18.5371059749
  H         1.4582217437        5.0453358262       26.0766093735
  H         2.9588513745        4.6290929938       26.7088795503
  C         1.5156545792        5.4736079721       28.1113403845
  S         5.9919732527       -2.1411920316       29.0524741240
  N         5.6262551178       -1.6380843704       30.6086853375
  C         5.3015017861        0.5491268823       31.6578499231
  H         4.6475116417        2.5527309520       32.1784230029
  H         7.6635364880        0.9869749836       20.3576516383
  H         8.1394197028        1.8097930489       18.8330617360
  C         6.5339831365        2.6922899946       19.7847978175
  H        10.5064890709        1.7463862803       19.7532889601
  H        10.2143365800        1.1854524402       21.4123837533
  C        11.4969415883        2.9241324023       21.2010968640
  H         9.5039983442        3.8560520566       17.9978721213
  C         9.7448518353        6.6645743600       17.2186993370
  H         0.9341207110        4.5697506767       28.4278140196
  H         0.7995803400        6.2576152987       28.2113472504
  C         2.4734290971        5.6927215014       29.2541537714
  C         5.1486382200       -0.0838486470       32.9513983715
  H         6.8152853480        3.5344487911       19.2283199612
  H         6.1594706517        2.9958313798       20.7497375715
  C         5.5168353191        1.9414485835       18.9364543875
  H        11.4023035149        3.1269717694       22.2731775253
  H        11.5760591246        3.8838753616       20.6331985394
  C        12.8910960558        2.2741288762       20.9478986698
  C         9.9780561542        8.0338797324       17.0476921349
  C         9.8390038391        5.7894777655       15.9453898083
  H         3.1821833098        4.9038923260       29.2784972142
  H         2.9589505959        6.6071241088       29.2702221139
  C         1.8563737568        5.5803394197       30.6334501790
  H         5.2485854149       -1.1593183818       32.8579258926
  C         4.7805034156        0.2795675723       34.2321297731
  H         5.3956825213        1.0128809738       19.3745105226
  H         6.0023473438        1.8423944818       17.9743508490
  C         4.1017112077        2.5270481560       18.8801784264
  H        13.0820178214        1.4859315169       21.6473251538
  H        13.0119754713        1.8252024489       19.9767814363
  C        14.0138853983        3.2785762352       21.1433036537
  N         9.7351794115        9.0611860115       17.9615546638
  C        10.2782475692        8.5507139967       15.8136453381
  C        10.2468840442        6.3160358307       14.7239411863
  H         9.5980314564        4.7411218865       16.0972502721
  H         1.9195050901        6.5634324688       31.0790500904
  H         0.8220146029        5.2675054372       30.4661793800
  H         2.4238629626        4.7806021142       31.1159625579
  S         4.3611516192        1.8912959206       34.7519101286
  C         4.7255929229       -0.7480921880       35.3756828230
  H         3.8841348124        3.0192349846       19.8383314288
  H         4.1806779730        3.2920239918       18.0769866939
  C         3.0072868307        1.5148389008       18.5410988902
  H        13.7912716707        4.2896385254       20.8311740967
  H        14.8102457228        3.0764843146       20.4789174874
  C        14.3163892968        3.5058066810       22.5792576355
  S         9.9707486305       10.5525445767       17.2539462549
  N        10.4440196880        9.9520254877       15.8110223175
  C        10.4934480211        7.7645567835       14.6653513898
  H        10.4004809109        5.6034310805       13.9406532589
  C         4.0307144435        1.2106550684       36.2602815788
  N         4.1893285624       -0.1464197137       36.4609253729
  O         5.0990416418       -1.9102630863       35.3548730659
  H         2.0835731515        2.0374246964       18.4319746093
  H         2.6796844883        0.8083207002       19.3095298995
  C         3.1700108248        0.8275958925       17.2086094440
  H        14.9606644568        4.4152973644       22.8501968189
  H        13.3731267607        3.7284382508       23.0992809554
  C        14.9845946695        2.2921428104       23.2018024018
  C        10.9728692525        8.4239897826       13.5245435180
  S         3.6094574307        2.2784291135       37.6141088184
  C         4.2258107966       -0.7957970341       37.8240945012
  H         2.2688451052        0.9190044998       16.5295722967
  H         3.8777631074        1.4809370213       16.8261516347
  C         3.5672297729       -0.6635706021       17.1151850021
  H        14.9547668274        1.4218538471       22.5512547652
  H        14.4468217539        2.1260352680       24.1471702870
  C        16.4632641542        2.6275737320       23.4639408729
  H        10.7645620744        9.4549570307       13.3553909090
  C        11.5830988069        7.9485021641       12.3882568580
  H         3.5814472557       -0.3145132188       38.5752472731
  H         3.9380227027       -1.8067056324       37.6709126933
  C         5.5830068483       -0.8311305303       38.4335668776
  H         4.0594294953       -0.9814769274       18.0226319994
  H         4.2430786853       -0.6652322699       16.2532764209
  C         2.3458774449       -1.4769611544       16.9132690662
  H        16.4841688235        3.5295395544       24.0687185574
  H        16.9118919639        1.9568934944       24.1549517548
  C        17.5231915650        2.6883178434       22.3416212663
  S        12.0111824376        6.3324041301       11.8928892055
  C        11.7634257240        8.9665237655       11.3136972231
  H         5.5892924015       -1.6046339901       39.2484303889
  H         6.4027750336       -1.1358852319       37.8081697068
  H         5.7571266238        0.1392347443       38.7654400201
  H         2.2972535519       -1.5738903048       15.8177294742
  H         1.4251693872       -1.0347514219       17.3254233934
  H         2.4489262818       -2.4872734674       17.4065974054
  H        18.5345620329        2.9400525401       22.7585679573
  H        17.2960223091        3.3501265874       21.5129232979
  H        17.5323619139        1.7074086506       21.9245710998
  C        12.4987966621        7.0745103930       10.3903214926
  N        12.3238279200        8.3624398537       10.2932421230
  O        11.3513520983       10.1330475330       11.3471939261
  S        12.9051710952        6.1221361726        8.8782640461
  C        12.3765614996        9.1680049698        9.0427728300
  H        12.3974156586       10.2640196246        9.2141991549
  H        13.3075497519        8.9227432485        8.4833698470
  C        11.1662817917        8.9407273090        8.2091264435
  H        11.3551020729        8.3468619530        7.2564247237
  H        10.3456551526        8.4536204041        8.7049673091
  H        10.8633023696        9.8923535948        7.7437254821
  H        21.2513348046       10.8899970243        3.7887169879
  C        21.7240522619        9.8953353680        3.8753506772
  H        20.8047103384        9.2536497530        4.1072823371
  C        22.6901387073        9.9195934628        4.9842626407
  C        22.5878413181        9.4857579916        2.6308006804
  C        21.9963349902       10.2557357140        6.3045410123
  H        23.0796819353        8.9138551049        5.1357848620
  H        23.4534710465       10.6535461957        4.8770268325
  H        23.3205359339       10.2169265594        2.2420108479
  H        21.9566064771        9.2095001175        1.8081097209
  H        23.2245610771        8.5981838620        2.8147376772
  C        21.2079835078        9.0150387521        6.8545011187
  H        22.7154034375       10.7067940101        7.0055821450
  H        21.3258669452       11.0793089783        6.0401180465
  C        20.4738791735        9.2976538091        8.1941359299
  H        21.8726844776        8.1976858143        6.9353270179
  H        20.5539296009        8.6224082490        6.0858387182
  C        19.2295524007       10.2380817829        7.9552763363
  H        21.3602366061        9.7968177043        8.6435819698
  H        20.1916536968        8.4755567911        8.8949364093
  C        17.8845023478        9.5085666654        7.6964721621
  H        19.1646818314       10.7359676658        8.9365508022
  H        19.5830706912       11.0090348471        7.2746506925
  C        16.6240608849       10.4191366745        7.3460988589
  H        17.5807869323        8.9865376309        8.6063644855
  H        18.0144150095        8.8132020696        6.9217639167
  C        17.0383457568       11.7624342227        6.6442708603
  C        16.0907542688       11.1514251778        8.5355945755
  C        15.4571184341        9.6440421078        6.6379246865
  C        16.7291341405       12.8709427991        7.4268235064
  C        17.6076235494       12.1730259789        5.4362806609
  C        16.1842417964       12.5221521335        8.6283017011
  C        15.5519935170       10.5000149503        9.6466332762
  H        15.8657111251        9.2532416942        5.7702217963
  H        15.1055285505        8.7202394262        7.2009145625
  C        14.2163489876       10.4125406615        6.1392791808
  S        17.1574496524       14.3822678335        6.7658377953
  C        17.8069133638       13.5158184898        5.3808481716
  H        17.8833221015       11.4671892953        4.7237767559
  C        15.7955549993       13.1802291736        9.7488611400
  H        15.3937049714        9.4807345793        9.6200377900
  C        15.1895446682       11.1854297353       10.8278101869
  H        14.5373205187       11.3044818544        5.6185753790
  H        13.6686014724       10.7740389529        7.0083978506
  C        13.2243297793        9.6231893638        5.3292103928
  C        18.2777097146       14.2853500256        4.1087359762
  C        15.2989709509       12.5246167523       10.9329503186
  H        15.9705925924       14.2763719064        9.7185538352
  C        14.8346530319       10.8048692407       12.1344324596
  H        12.4627336386       10.3791809248        5.1765429280
  H        12.8984442900        8.7201314210        5.8027228422
  C        13.7804819185        9.2306481749        3.9684769917
  C        18.2465126379       15.7049105383        3.9059544844
  C        18.7516887396       13.4285864042        2.9997823457
  C        14.9629386721       13.3322249186       12.1426477008
  C        14.6899448465       11.9731095937       12.8814774322
  S        14.5290306041        9.4047850557       12.9908417724
  H        13.7369734276        8.1433913214        3.8945724189
  H        14.8409578833        9.4925113513        3.8561879747
  C        12.8456437946        9.5978549983        2.8345951464
  N        17.8305110204       16.6418526709        4.8843528711
  C        18.3137642524       16.2532537395        2.6433055853
  C        19.1584666064       14.0518252143        1.7711050944
  H        18.6187415397       12.3971330273        3.0215222846
  C        13.6473628165       14.0754120332       11.9254671699
  C        15.9765434283       14.2616312188       12.8221801551
  C        14.3076921613       11.6951159581       14.1788677447
  C        14.1790428477       10.3293048931       14.3519976682
  H        11.9674192991        8.9683212650        2.9164330165
  H        12.4716010566       10.6009537341        2.9309954234
  C        13.4192800150        9.3312366669        1.4357789506
  S        17.5450956936       18.0770122921        4.1944399221
  N        17.9031771990       17.6183511352        2.6638611765
  C        18.8271872424       15.4611821197        1.5268476309
  H        19.5355002835       13.4105371320        1.0380697998
  H        13.8724570069       14.7688710636       11.1075523997
  H        13.4527484732       14.7646579308       12.7172653028
  C        12.4467433322       13.2003669811       11.6262764673
  H        16.3231170859       15.0408215979       12.1176626770
  H        15.4792599459       14.8034203975       13.6271279170
  C        17.1559784341       13.4203775300       13.2967474111
  H        14.3112585206       12.4861054697       14.8809175437
  C        13.8223132259        9.7000681817       15.7220908031
  H        13.4661882642        8.2341734059        1.5300154545
  H        14.4431591730        9.6794244960        1.2373652631
  C        12.4393351898        9.5883560125        0.3133028029
  C        18.8954493060       16.1078641715        0.2156372853
  H        12.7980427232       12.5305845001       10.8355115726
  H        12.0558262196       12.6267283545       12.4240874730
  C        11.1876559466       13.9784637741       11.2748051679
  H        17.5501564819       12.8211947132       12.4668775712
  H        16.8230405025       12.7341340703       14.0579551315
  C        18.2487625043       14.3637618187       13.7278407062
  C        13.7050986691        8.3384612138       16.0061594123
  C        13.7304009841       10.6622638091       16.8734138686
  H        12.0063230446        8.5944129850        0.0068271037
  H        11.5989284276       10.2040134004        0.6314195383
  C        13.2582882426       10.1051636238       -0.9164068216
  H        18.7345700089       17.1958609879        0.2800650585
  C        19.1973713089       15.6995350818       -1.0960884293
  H        11.5326981951       14.7222198456       10.5155618535
  H        10.8360728857       14.5924502888       12.1365656870
  C        10.0640827532       13.1134518805       10.7352260969
  H        18.5903555653       14.8868482728       12.8523745308
  H        17.8199058669       15.1435036409       14.3407791180
  C        19.4026166867       13.6776196234       14.5143931167
  N        13.8607333401        7.3670463650       15.0212309363
  C        13.3957714578        7.8474344212       17.2465211043
  C        13.4175787575       10.1631607627       18.1106072912
  H        13.9577418513       11.7081130214       16.8912626448
  H        12.5693441576       10.2363579261       -1.7172899852
  H        13.9012025113        9.2858742640       -1.2744978637
  H        13.8970593070       11.0187491539       -0.7875339700
  S        19.4845894353       14.0800557532       -1.5982692216
  C        19.3462140155       16.6780605165       -2.2050416687
  H        10.4519396715       12.2389513847       10.2043280189
  H         9.5086458899       12.7791570464       11.6164164118
  C         9.0633474890       13.7379451005        9.6790656140
  H        19.5847186095       12.7102219258       14.1113478098
  H        19.0755725542       13.4177980063       15.5496383907
  C        20.7343854551       14.4298978107       14.4669610020
  S        13.6839436818        5.8944600424       15.8010958651
  N        13.3618399064        6.4321577026       17.2976694315
  C        13.3371504233        8.7073399621       18.3635360060
  H        13.4302698065       10.8605258334       18.9727545259
  C        19.7748285821       14.7572482342       -3.2275724186
  N        19.7009420158       16.0705017331       -3.3474553363
  O        19.3040779383       17.8641024824       -2.0377113320
  H         8.6758775517       14.7326896544       10.0046221888
  H         9.5787114852       13.9848018088        8.7235551736
  C         7.9782563252       12.7236849782        9.2371240167
  H        21.4078228057       13.8831715026       15.1104894931
  H        21.1332536344       14.4556873523       13.5455776699
  C        20.5911003326       15.8629360865       15.0294209833
  C        13.0958940399        8.0779575208       19.5816825095
  S        20.1643619416       13.7252633432       -4.6423806665
  C        19.7651467267       16.7230792894       -4.7052899701
  H         7.6861948540       13.1765455466        8.2501224031
  H         8.4600118840       11.7291740890        9.0707225346
  C         6.7545508201       12.7272699654       10.1720725627
  H        20.1209577128       15.8355065344       15.9969422214
  H        20.0036109459       16.4182218352       14.2501381509
  C        22.0060987121       16.5023133901       14.9970372916
  H        13.3550776455        7.0023975790       19.5535779866
  C        12.5297814742        8.4842459717       20.7912554671
  H        20.5648382986       16.3165324389       -5.3541546753
  H        20.0170834283       17.7948851819       -4.5639930689
  C        18.4577170496       16.5904308319       -5.4800447154
  H         7.0628155873       12.9643205032       11.2186202670
  H         6.3226585879       11.7279618412       10.1491582465
  C         5.7391152069       13.8253087626        9.7587553598
  H        22.7817764614       15.9081714591       15.4409447649
  H        22.1766328713       16.7823175726       13.9471540186
  C        21.9263623509       17.7658560273       15.8820177626
  S        11.6923126103        9.9959197311       21.0108202124
  C        12.5016484965        7.4770909715       21.9241092672
  H        17.8357549360       17.4877295628       -5.4278954034
  H        17.7888454219       15.7828046762       -5.1689361253
  H        18.6306401153       16.3062588222       -6.4963876483
  H         4.8954581688       13.7642688353       10.4095432315
  H         6.2473085317       14.8004574864        9.6902321838
  H         5.2962848643       13.5571492335        8.8482700809
  H        22.4655543001       17.5522027126       16.7856321105
  H        22.4692931634       18.5630411760       15.3656290871
  H        20.9322328242       18.0191472242       16.2423092807
  C        11.0715991314        9.2249803286       22.5111002286
  N        11.7707853477        8.1013727475       22.9197255414
  O        13.1654561624        6.4310235517       22.0077640523
  S        10.0770357577       10.1100367571       23.7052987824
  C        11.4920577418        7.4641656399       24.2176509277
  H        10.8836235320        6.5775990126       24.1073930883
  H        10.9948423241        8.0442264507       24.9976521927
  C        12.8411901728        7.0684502012       24.8367221153
  H        13.1950475336        6.1627526682       24.3101597879
  H        12.7208290575        6.8615584560       25.9112295241
  H        13.5912435063        7.8369904735       24.7465245549
