352
 i =    60300, time =    60300.000, E =        24.8944342480
  H        10.2762702397        4.4891195796       31.3854259717
  C        10.4475241304        5.4864112616       31.7257299104
  H         9.6053028239        6.1142991107       31.3710176012
  C        11.6721424921        6.1650414883       30.9661897702
  C        10.5306029841        5.6618523589       33.2807734074
  C        11.8935440753        5.6462071987       29.5376849333
  H        11.4642860875        7.1996144693       31.0192273958
  H        12.5835106430        6.1067550877       31.5775663246
  H         9.7155932726        6.1129255618       33.8375989527
  H        10.6916978305        4.6136508276       33.6275006995
  H        11.3517662524        6.3068405035       33.5688856602
  C        10.6124600157        5.4207109369       28.7154682253
  H        12.4268459567        4.6625493353       29.5824254993
  H        12.4490455129        6.3901477989       29.0330771793
  C        10.8342054831        5.3852775661       27.1683166350
  H        10.0614266495        4.5159705374       29.0451173960
  H         9.9590849181        6.2675608534       28.9336546967
  C         9.7391896637        4.7398194593       26.3447631093
  H        11.7671161706        4.7941074215       27.1118961955
  H        11.1062689198        6.3852182484       26.8233937894
  C         8.5415143338        5.7162637646       26.1728616497
  H        10.0068228761        4.4284877407       25.3508185156
  H         9.5470185078        3.7724205709       26.8537905891
  C         7.3610903753        5.0708200108       25.4458168431
  H         8.1842244870        6.1129715338       27.0972161917
  H         8.9807700265        6.6124463146       25.7178331709
  C         7.0330922500        3.6923654695       26.1649584451
  C         7.7967228987        4.2816637438       24.1762359219
  C         6.2726626858        6.0858093645       24.9650927422
  C         7.2477926733        2.6167321469       25.3609987115
  C         6.5669317410        3.3356991975       27.4003107585
  C         7.7387330000        2.9823086444       24.1245446345
  C         8.3048039159        4.9185866436       22.9586908321
  H         5.7441512659        5.8136224651       24.0171729074
  H         6.6305320645        7.1337644947       24.8349793757
  C         5.1719936644        6.3332385267       25.9621606731
  S         6.6873243149        1.1110453639       26.0047428829
  C         6.3001341172        2.0229741221       27.4871835671
  H         6.5860181702        4.0932866863       28.1824674591
  C         8.0643298715        2.4263142238       22.9234054147
  H         8.4163353552        6.0006401139       22.9608536446
  C         8.6000860884        4.3072125223       21.7894214219
  H         5.2728985768        5.5950431446       26.7696242591
  H         5.4012074634        7.3463364023       26.3226394243
  C         3.7791271922        6.4357255679       25.3752692375
  C         5.7474022718        1.3878116219       28.7424225320
  C         8.4944560066        2.9908274580       21.7487215811
  H         7.8167929432        1.4019899504       22.9030039035
  C         8.9478459384        4.6476661525       20.4591425050
  H         3.5222511093        5.5649344098       24.7913481285
  H         3.7354180471        7.2267542093       24.6470263231
  C         2.7348871083        6.4870889423       26.4887660616
  C         5.6875086942       -0.0192809584       29.0377360287
  C         5.2703779570        2.2141386615       29.8553187066
  C         8.6609099773        2.2410912746       20.4454314989
  C         8.9760159877        3.5708350951       19.6229593265
  S         9.2301648487        6.1103629905       19.5713327390
  H         1.8572012380        6.9180106087       25.9852986765
  H         3.0314743367        7.2115126276       27.2466547304
  C         2.2625754899        5.1654163724       27.1101375634
  N         5.9296193951       -0.9738213515       28.0949455004
  C         5.3936103900       -0.5594675369       30.2966493822
  C         4.8830697949        1.6741801328       31.0771567817
  H         5.2373455542        3.2303573862       29.7843195143
  C         7.5329809461        1.3803712038       19.7750761353
  C         9.9533717987        1.3376636345       20.6542870453
  C         9.2492186352        3.8833903900       18.2655550344
  C         9.4153293343        5.2330515781       18.1136110315
  H         1.7180651356        4.5361339862       26.4524599482
  H         3.0847721516        4.6134064331       27.5107042640
  C         1.3426927927        5.4725212649       28.2815431008
  S         5.8359860292       -2.4057780294       28.9038996983
  N         5.5060666881       -1.9156849690       30.4104602192
  C         5.1342283608        0.2460658223       31.4032794042
  H         4.5867951324        2.4341585869       31.7819755177
  H         7.2326683209        0.6421223272       20.4971926731
  H         7.9372497296        0.9011390167       18.8840392670
  C         6.2929890074        2.2650968058       19.4213523803
  H        10.2957042654        0.8417007793       19.7331643352
  H         9.6489115594        0.5397935521       21.3584940594
  C        11.2117909020        2.0887135164       21.1529060808
  H         9.3708775657        3.0671686243       17.4781925962
  C         9.8112749163        5.8794906159       16.8257137058
  H         0.8381836316        4.4697630464       28.4837164381
  H         0.6210656878        6.2281320619       28.0644925502
  C         2.0947233584        6.0225052198       29.5160813474
  C         4.9221479094       -0.3651625669       32.6330414640
  H         6.5709317785        3.1707199689       18.8381429121
  H         5.7850971084        2.6585078547       20.3085326258
  C         5.3008690242        1.4264156027       18.5521976557
  H        11.1128827969        2.4340075924       22.1688039768
  H        11.3865543465        2.9669455385       20.4887584483
  C        12.3950336586        1.1433390286       21.2083902419
  C         9.9672087370        7.2582191803       16.6651311777
  C        10.0463064808        5.1057375931       15.6072155491
  H         3.0915587560        5.6475363584       29.7253168737
  H         2.3621334626        7.0711580823       29.4499707147
  C         1.1587015277        5.9420210751       30.7650695142
  H         4.9070833012       -1.4855853161       32.5956907570
  C         4.7312743801        0.0459966286       33.8957392933
  H         5.1088598632        0.5807884613       19.0679069974
  H         5.7093429827        1.1130625338       17.6591277443
  C         4.0703053094        2.3252015336       18.3236494029
  H        12.2244386464        0.3901752658       21.9747995277
  H        12.3860262973        0.6998032303       20.2252753120
  C        13.6813628369        1.9023114601       21.5300591089
  N         9.7680254105        8.2717087969       17.6441865143
  C        10.2763021685        7.8410274138       15.4386764244
  C        10.4364805202        5.6577241385       14.3512173698
  H         9.8626775346        4.0434330593       15.7114943319
  H         0.7920488657        4.9562877378       30.9749724578
  H         1.6878351570        6.4164041453       31.6346370457
  H         0.3026258151        6.5165009768       30.5231505321
  S         4.5067570951        1.6490319416       34.5383069344
  C         4.6513076521       -1.0697091483       34.9708577486
  H         3.9551197609        2.8918766032       19.1864542711
  H         4.0717116096        2.9088557492       17.4524132401
  C         2.8764915479        1.3259993887       18.3383764566
  H        13.5027241935        2.8963719007       21.0236296965
  H        14.5778334250        1.4087784224       21.0391345498
  C        14.0595003284        2.1397048143       23.0018566778
  S        10.0629280267        9.7395669279       16.9784800651
  N        10.3921197564        9.2533425743       15.4499369924
  C        10.4412319345        7.0806629124       14.2429924850
  H        10.6662809654        5.1103315938       13.4208830008
  C         4.1872137241        0.8548536707       36.0743531141
  N         4.2734984099       -0.4883639006       36.1471682014
  O         5.0984122512       -2.1855973119       34.8059259602
  H         2.0110013221        1.9479069572       18.2399274334
  H         2.8701762256        0.7883333923       19.3216234132
  C         2.8901733866        0.2185171351       17.2238084252
  H        13.2584562848        2.9113837205       23.2975391036
  H        13.9704275285        1.2328155097       23.5336435427
  C        15.4026877881        2.8843614114       23.1449450897
  C        10.8181000402        7.8154626862       13.0768095503
  S         3.9948342011        1.7633514969       37.5769269014
  C         4.2912783862       -1.2563908008       37.3715584112
  H         2.7457709137        0.6571629156       16.2182668144
  H         3.8221940105       -0.2674480918       17.1672918221
  C         1.7882375464       -0.8642519232       17.4427637635
  H        15.2496805445        3.7823267338       23.7395707129
  H        15.4950267256        3.1689679584       22.1533072922
  C        16.5734326738        2.0134716510       23.5875247442
  H        10.4604609844        8.7759111018       13.1066279193
  C        11.4398039613        7.5731143667       11.8452575808
  H         3.5591807443       -0.9041483686       37.9935355322
  H         3.8524194327       -2.2499931374       37.2253209097
  C         5.6574979559       -1.3510843984       38.0692024030
  H         1.7466204905       -1.4851126847       16.5413399714
  H         0.7981696590       -0.4512329443       17.5564487963
  C         2.2765211957       -1.7338671882       18.5958841201
  H        16.8089754737        2.3113700128       24.6592438377
  H        16.3799779801        0.9665652040       23.7066900755
  C        17.8861936579        2.1887304070       22.7302164008
  S        12.3446856650        6.1760937787       11.4323114704
  C        11.5655576548        8.7757856342       10.9153808539
  H         5.5033977898       -0.4878510632       38.7290984728
  H         5.8013701497       -2.2842135261       38.6345839834
  H         6.5041268088       -1.2869518781       37.3701389878
  H         2.3684654417       -1.4151643481       19.5799949293
  H         3.2358116860       -2.1855936135       18.3045730763
  H         1.5590565493       -2.5359571456       18.7221293798
  H        17.6059880517        2.2401558453       21.6907457001
  H        18.5144225471        1.3203880860       22.9670468836
  H        18.3700569910        3.0527651788       23.0632795901
  C        12.6411785448        6.9908314244        9.8736082596
  N        12.1605014663        8.2792604633        9.7944225015
  O        11.0986467883        9.8979865241       11.1203385750
  S        13.5839828448        6.4502244981        8.5226750102
  C        12.3035474639        9.0839235352        8.5969496637
  H        12.3565658157       10.1268034113        8.9396656229
  H        13.2183600030        9.0552820481        8.0558855157
  C        11.0516575429        9.1085483446        7.7900968276
  H        10.3489474850        9.9511421110        7.8449725236
  H        11.3382448475        9.2907584578        6.7570074616
  H        10.5552557421        8.1830224110        7.8336852501
  H        21.4305698744        8.8724548856        3.3862737758
  C        22.1685675347        9.5501583871        3.2069880369
  H        22.9749565624        8.8354165447        2.8527048973
  C        22.6625839995       10.2283080384        4.4909204987
  C        21.7160926321       10.5085998879        2.1276185958
  C        21.6605937885       10.4938468036        5.6383767434
  H        23.5275807110        9.7013963806        4.9318282311
  H        23.0160918277       11.2474820518        4.2113120352
  H        20.7821125254       11.0808731138        2.4325570135
  H        21.5646670403        9.9254159548        1.2453318367
  H        22.5270486164       11.1612707513        1.8666429187
  C        21.2052761055        9.1935818360        6.3092592520
  H        22.2181343154       10.9754321303        6.3709137805
  H        20.8287288280       11.1792998345        5.3530573137
  C        20.4204047228        9.4918105639        7.5819792352
  H        22.0850086097        8.5706923325        6.5231063248
  H        20.6369600621        8.6578530724        5.5947570762
  C        19.1483147041       10.2920838242        7.4916947778
  H        21.0553180499       10.0098135632        8.3867772518
  H        20.3068841839        8.5193192713        8.0346919259
  C        17.8620400073        9.6115089868        7.0119861701
  H        18.8825182159       10.8390923404        8.4140269780
  H        19.3320306742       11.1303066638        6.8573069536
  C        16.6533521014       10.5129876589        6.8483724671
  H        17.7090725521        8.7662994939        7.6263348649
  H        18.1138731910        9.2057263325        6.0300888753
  C        16.9844093244       11.8301697340        6.2364399794
  C        16.0641304131       11.1317324284        8.0818251247
  C        15.5379688900        9.7854953392        6.0610194383
  C        16.5799202238       12.8778411845        6.9787132589
  C        17.6104632284       12.2299765752        5.0934531276
  C        16.0870207327       12.4768752400        8.2057899816
  C        15.5699670877       10.4250550890        9.1764145317
  H        15.9410241967        9.2418641983        5.1897732690
  H        15.1985705208        8.9415476978        6.6761481792
  C        14.2868088207       10.6167818274        5.7452534753
  S        16.9157606683       14.4399832165        6.2039549729
  C        17.6349265882       13.5525743136        4.8868388276
  H        17.8730760973       11.4525822176        4.3483015852
  C        15.6223345654       13.0478700551        9.3521130122
  H        15.4631438046        9.3970392764        9.0743129559
  C        15.1764564285       10.9960420103       10.3854296787
  H        14.5161423143       11.5003880386        5.2132151327
  H        13.7942646508       10.9582087010        6.6905049356
  C        13.2572729183        9.9079347290        4.8123926692
  C        18.1117797777       14.2304081529        3.6388969084
  C        15.1822610847       12.3285163650       10.4913994818
  H        15.7442183462       14.1310360708        9.4452281091
  C        14.7372296446       10.6311463297       11.6165213755
  H        12.3837992476       10.4433071362        4.9453421762
  H        13.0969597917        8.8894519577        5.1801882514
  C        13.7646413272       10.0798661005        3.3634235459
  C        18.0118356651       15.6191925648        3.4443085244
  C        18.6919690089       13.4062343824        2.4871412431
  C        14.7820504375       13.0809398382       11.7584890799
  C        14.4762742176       11.7197146186       12.4145397968
  S        14.6066131111        9.0813598050       12.3470446371
  H        14.5516619904        9.3550475361        3.2563632712
  H        14.2382572664       11.0575289994        3.1827828590
  C        12.6893202829        9.8854297655        2.3180529408
  N        17.6475300484       16.6488767579        4.3501897837
  C        18.3189815925       16.1438432129        2.1598351019
  C        18.8126424056       13.9177524518        1.1928033281
  H        18.9112455860       12.3255868301        2.6647489985
  C        13.5100603989       13.8526744317       11.4895626539
  C        15.7603638170       13.8074059074       12.5867003162
  C        14.0638843133       11.3134139426       13.6817462314
  C        14.1467427608        9.9427822668       13.8438681594
  H        11.8580710829        9.4437474561        2.8127680155
  H        12.3461022040       10.8334129473        1.9161319460
  C        13.1158205146        8.9331596025        1.1679500192
  S        17.6637211301       18.0579692686        3.5653565856
  N        18.1366854770       17.5381852599        2.1042216190
  C        18.6146654588       15.3484793230        1.0263094256
  H        19.1643099879       13.3325914859        0.4181987025
  H        13.5894155454       14.5130852646       10.6102529343
  H        13.2929144169       14.4490805456       12.3537920031
  C        12.2679429627       12.9893128030       11.1707642687
  H        15.9780854569       14.7287160878       12.1003258625
  H        15.2544479491       13.9891183001       13.4654232441
  C        17.0918736221       13.0619473592       13.0128782489
  H        13.8696443654       12.0776751130       14.5076054883
  C        13.9713185540        9.2526802837       15.1592349282
  H        12.2325853936        8.4401766501        0.6471088841
  H        13.8263493692        8.3056609136        1.5313489564
  C        13.8110636811        9.6090871890        0.0398040843
  C        18.8498774454       15.9801673478       -0.2052930351
  H        12.4571790125       12.3985284387       10.2848403013
  H        11.9970737756       12.2952577929       11.9213772940
  C        11.0325228390       13.9102137917       10.8898074861
  H        17.4827498955       12.5002758760       12.1946380905
  H        16.8729094406       12.2901229384       13.6906946067
  C        18.1819901129       14.0000452957       13.6062637313
  C        13.9192028752        7.8057755566       15.3184841893
  C        13.6804917474       10.0397089027       16.3957102016
  H        14.4894075968       10.3553494543        0.4080556008
  H        14.4763469485        8.9418537958       -0.5627815160
  C        12.8229311002       10.3356332431       -0.9660015170
  H        18.7072068191       17.0373681627       -0.2183227335
  C        19.1192262701       15.5963664460       -1.4913804863
  H        11.3501119912       14.4329560351       10.0130699128
  H        10.7251113034       14.5976127471       11.7282394170
  C         9.8408371341       13.0344392292       10.5400730732
  H        18.3521838552       14.8889167578       12.9587318931
  H        17.8108250010       14.3689265405       14.5872701140
  C        19.5549726015       13.3328848586       13.7385566805
  N        14.1254019062        6.8474743061       14.3181755952
  C        13.6286405919        7.1715606810       16.5495622791
  C        13.4401167837        9.4205710293       17.6054272580
  H        13.7142053493       11.1387120219       16.3061542796
  H        13.2960507721       10.5957242685       -1.8914680288
  H        12.3752328043       11.2517451584       -0.5329229548
  H        11.9061637981        9.6431835033       -1.1823262884
  S        19.5003810451       14.0096868194       -2.1026024373
  C        19.2787073448       16.6884273403       -2.5420211130
  H        10.2948792412       12.1600945110       10.0590033111
  H         9.2967735427       12.8405419248       11.4622312291
  C         9.0011158933       13.7587448658        9.5168643442
  H        19.5655282176       12.5082734613       13.0019999991
  H        19.7710903150       12.8703489013       14.6415990032
  C        20.6928585935       14.2437745130       13.3716350014
  S        14.0357181476        5.3934251963       14.9118742759
  N        13.6397121164        5.7653203588       16.4899081025
  C        13.4320736041        7.9686672313       17.7723860490
  H        13.2847920063       10.0078064577       18.4678252693
  C        19.7007944532       14.8227446426       -3.7056087911
  N        19.6467012569       16.1589833196       -3.7470218044
  O        19.1617752402       17.8909733433       -2.3529703885
  H         8.6177505501       14.6966259363        9.9149064961
  H         9.6778033655       13.9697694142        8.6822893849
  C         7.8434608232       12.9299479683        8.9635894985
  H        21.6627451536       13.7574363539       13.1249629556
  H        20.4863314189       14.6652092639       12.4136932996
  C        21.1182921388       15.3012733208       14.3630212009
  C        13.1578546693        7.1881052422       18.9286272058
  S        20.0421236838       13.9961549304       -5.2094593342
  C        19.7434035733       16.9874870317       -4.9668700222
  H         8.0982436769       12.5078882330        8.0867487710
  H         7.5955053386       12.1914634224        9.7107930085
  C         6.4872492101       13.7175387645        8.7170660974
  H        21.3158140037       14.8312021640       15.2887322816
  H        20.2337116355       15.9338948716       14.5220331015
  C        22.3599340644       16.0717984104       13.8157233749
  H        13.5424440179        6.1676610026       18.8309114741
  C        12.5661400801        7.4123427923       20.1176290033
  H        20.4581649924       16.5149668969       -5.6149746467
  H        20.1404380851       17.9821624642       -4.7362576720
  C        18.4125299408       16.9558143467       -5.7076166446
  H         5.8486788144       13.1719624735        8.0614301225
  H         6.7663455600       14.6325991115        8.2566166609
  C         5.7441268744       13.7088351607       10.0353595817
  H        23.2409344698       15.5892632233       14.2575746726
  H        22.2475938162       16.0315661677       12.7590862699
  C        22.4296988047       17.5531562299       14.1679467139
  S        11.9715827397        8.8986083426       20.6567089924
  C        12.5164285894        6.3441638638       21.0529972971
  H        17.7922136185       17.8497732663       -5.4555459039
  H        17.8323669690       16.0775330812       -5.5217238275
  H        18.6171623963       16.9046110958       -6.7834001269
  H         5.4564456587       12.6920722208       10.2370228519
  H         6.3777448874       13.9691665483       10.9223233671
  H         4.8260441390       14.3570677551        9.9839611536
  H        23.1290476561       18.0972520634       13.5752756541
  H        21.4515998368       18.0690871002       14.3300784953
  H        22.8135704989       17.6251083960       15.2069220064
  C        11.6867301696        8.1327603406       22.1790865400
  N        11.8499883700        6.7752922917       22.1318828672
  O        12.8049007094        5.1448418985       20.8371792080
  S        10.4249440110        8.6914381171       23.3365644037
  C        11.5961888571        5.8314332874       23.2617617957
  H        11.3632041757        4.8800112852       22.8370346932
  H        10.6532477794        5.9492778308       23.8524486294
  C        12.8496154942        5.7447246149       24.2359812967
  H        12.9960636531        4.8063507329       24.6564011393
  H        12.8054748907        6.5448670378       24.9171269660
  H        13.7550755824        5.9887354240       23.6750688673
