352
 i =    52500, time =    52500.000, E =        24.8346856505
  H        12.5737250265        6.1234290547       32.3318006619
  C        11.5041777558        5.9949230632       32.3823998759
  H        11.3602904398        4.8947080908       32.3546683676
  C        10.7858898200        6.4694914883       31.1659135262
  C        10.9217952836        6.4499522761       33.7248226478
  C        11.5208193957        6.0330634944       29.9326297523
  H         9.7609492619        6.0600249442       31.1175574236
  H        10.5892222290        7.5438591874       31.1440597905
  H        10.1015397452        5.7852704088       33.9684150185
  H        11.7600506379        6.3106154521       34.4663641610
  H        10.5368893117        7.4937420855       33.7912985847
  C        10.4868468658        6.1201746348       28.8248412277
  H        12.0811520937        5.1559212071       30.1122319564
  H        12.2898490069        6.7725887690       29.6747896058
  C        11.1693207536        6.0454543907       27.4587068381
  H         9.8454565514        5.2068383699       28.8812123189
  H         9.9435882972        6.9904450646       28.9248589140
  C        10.1408641844        5.3410545252       26.4874287603
  H        12.0306173505        5.3004990999       27.4753515783
  H        11.4562339265        7.0668692295       27.1200260872
  C         8.8825077672        6.1209705594       26.3139127717
  H        10.6484757301        5.1013750740       25.5152459277
  H         9.9862591465        4.3771551353       26.7937811604
  C         7.7792229887        5.4263749170       25.3798916094
  H         8.3834914996        6.4460129005       27.2505795712
  H         9.0036378084        6.9996441296       25.6856848886
  C         7.3438043927        4.0372786858       25.9416841933
  C         8.2372766467        4.6872028062       24.0969199617
  C         6.4709702825        6.2913089850       25.1676794402
  C         7.5951895910        2.9271796626       25.1899370585
  C         6.9401838124        3.6479873780       27.2009385414
  C         8.0923769002        3.3571533253       24.0507071977
  C         8.7003679156        5.4017145660       22.9965426741
  H         6.6770043763        7.2401750742       24.7510928384
  H         6.1586424362        6.5356916116       26.1308221329
  C         5.2306939514        5.5857948260       24.4917335240
  S         7.0513772853        1.4468918482       25.9271075897
  C         6.6871384929        2.2799961421       27.3271767830
  H         6.7816614268        4.3528657927       27.9474158358
  C         8.3606848470        2.8028187705       22.8721982042
  H         8.7072296558        6.4628155972       22.9908270398
  C         8.9668848730        4.7523841426       21.8301933183
  H         5.4835028170        5.2978201714       23.4745678089
  H         4.9147700116        4.6071698957       24.9155491770
  C         4.1116153592        6.5315634103       24.2574333020
  C         6.2202639725        1.6499796101       28.6165846490
  C         8.8408073237        3.4456863001       21.7487271728
  H         8.1136120484        1.7758566314       22.8563837780
  C         9.2290750689        5.1166814856       20.5392248483
  H         3.4848049804        6.1215757385       23.4822084799
  H         4.6593390979        7.4478069615       23.9894572014
  C         3.3343027771        6.8684792502       25.5518549557
  C         6.2038271613        0.2566942256       28.8326766825
  C         5.5839427182        2.5180929468       29.6847121627
  C         9.0567067641        2.7272959731       20.4527962578
  C         9.3403640436        4.0828461244       19.6442890117
  S         9.5438363146        6.5746988397       19.7025606314
  H         2.4775673121        7.6071734148       25.2846383680
  H         3.9380039938        7.3961328225       26.2620469878
  C         2.7211447916        5.6106110549       26.1644482577
  N         6.6770493584       -0.7377891982       27.9548094165
  C         5.8444648899       -0.3310465414       30.0473805567
  C         5.1805892801        1.9037846233       30.8983891880
  H         5.3670822352        3.5813042419       29.5959794560
  C         7.9038304177        1.9057365781       19.7222292565
  C        10.3217449466        1.8337897176       20.4666745428
  C         9.7031646821        4.4130668382       18.3611947828
  C         9.8986522285        5.7243408699       18.2333761451
  H         2.2156873096        5.1007667726       25.3628261170
  H         3.5444000820        4.9138320248       26.5708658326
  C         1.7184487424        5.8976975658       27.2630685850
  S         6.6501862875       -2.2112393503       28.6873852978
  N         5.9332322088       -1.7857077700       30.1106256111
  C         5.3784817977        0.4487965124       31.1731170833
  H         4.7682585124        2.5212762551       31.6470301283
  H         7.6111636223        0.9730854773       20.2710430771
  H         8.2085286148        1.4216697143       18.7282352201
  C         6.6917001200        2.7679579529       19.3810587370
  H        10.3532966856        1.3189797405       19.5538912014
  H        10.3418887610        1.0061865819       21.2380937753
  C        11.5762273016        2.6000821470       20.6667237004
  H         9.8238480597        3.7488501053       17.6159292665
  C         9.9854136906        6.4129079970       16.8839385841
  H         0.8354188466        5.3103795918       27.2882404445
  H         1.4085526110        6.8799593617       26.9444244674
  C         2.2174474843        5.9275195463       28.7139290219
  C         5.0912819665       -0.2366166224       32.3998487596
  H         6.8853893697        3.5038913875       18.6404722917
  H         6.3719926591        3.3259369622       20.3267736348
  C         5.5568248650        1.8730221847       18.9074479007
  H        11.4157321030        3.3513157834       21.5313991771
  H        11.7336724611        3.2395499858       19.7879636475
  C        12.7606882579        1.5931294403       20.9101308200
  C         9.9149849383        7.7916659535       16.6701744886
  C        10.1489379213        5.6196715300       15.6405803569
  H         2.9697072864        5.1432283227       28.7351698319
  H         2.8481709796        6.8280438156       28.9023408473
  C         1.2114326498        5.9615965534       29.8912702995
  H         5.2029262471       -1.2808494185       32.3474896528
  C         4.8452746831        0.2567566305       33.6263420590
  H         5.2270967441        1.1915094230       19.7252930815
  H         5.8866157577        1.2554243395       18.1062093815
  C         4.3356237829        2.6198511524       18.4165542192
  H        12.7361899308        1.0675313438       21.8154662956
  H        12.7765563594        0.8279253217       20.1698890074
  C        14.1160877513        2.2171071726       20.8585689193
  N         9.8812273940        8.7237204054       17.7158025106
  C        10.2139786123        8.4175318593       15.4333512946
  C        10.3700427127        6.2481545214       14.4286935935
  H         9.9979251960        4.5798652178       15.6251777545
  H         1.6624630047        6.0724139171       30.8552357499
  H         0.4787687269        6.6857133047       29.6753715506
  H         0.5529724272        5.0523680856       29.9828672455
  S         4.6819247515        1.8494210512       34.0948742202
  C         4.7446088807       -0.7890851702       34.7111298714
  H         4.3006831026        3.6627829345       18.9111833651
  H         4.4819584023        2.6607398640       17.3105701524
  C         3.0101444288        1.7972711194       18.5098216736
  H        14.0453659004        3.0815291426       20.2896113447
  H        14.8805027561        1.6238737035       20.3945974649
  C        14.5420781594        2.6816771831       22.2255424863
  S         9.9184201158       10.2652645825       17.0950218743
  N        10.2269134110        9.8219581022       15.5800689530
  C        10.5244150242        7.7359736648       14.2950490006
  H        10.6109790165        5.6679458541       13.5825861675
  C         4.4431042304        1.1687807651       35.7461833665
  N         4.4357533247       -0.2020240301       35.8409178590
  O         4.7298191642       -2.0257180478       34.5683154407
  H         2.1011756057        2.3515165526       18.5425415463
  H         2.9048722652        1.3407219785       19.4898182359
  C         2.9353897189        0.6619913763       17.5392131511
  H        15.2462291783        3.4940294741       22.1150242967
  H        13.7906624117        3.2423148515       22.7483046816
  C        15.1784465125        1.5628318827       23.1351408551
  C        10.8141967946        8.5073366052       13.1276854019
  S         3.8782896017        2.0819511945       37.1668917145
  C         4.3618085607       -0.9503871390       37.0645651992
  H         2.4539811777        0.8984460662       16.6165988559
  H         3.8420479248        0.2783655000       17.2483862183
  C         2.1424125607       -0.5379581605       18.0893745459
  H        15.3533977640        0.6859266284       22.5734241949
  H        14.3340235024        1.3282067150       23.8284621070
  C        16.4719184920        1.9659785738       23.8111262846
  H        10.6415672624        9.5629816476       13.1565743518
  C        11.3379851322        8.1004021695       11.9422337593
  H         3.4761711515       -0.6881134195       37.6648825724
  H         4.3001753027       -2.0188308198       36.8373700703
  C         5.5947053148       -0.7121351566       37.9398668064
  H         1.2481279474       -0.2113258274       18.6188438843
  H         2.7729329652       -0.9547603854       18.9065609284
  C         1.8749241015       -1.7540688120       17.2561175746
  H        16.2092132280        2.8664980050       24.4072990222
  H        16.7103842455        1.1811299287       24.5457579054
  C        17.7052525125        2.2657192061       22.9017946094
  S        11.6323529331        6.4309158079       11.4752500686
  C        11.4885352439        9.1154997868       10.8195025631
  H         5.5760757143        0.1749401725       38.6644766824
  H         5.8332620785       -1.6609609343       38.5740647312
  H         6.4261376195       -0.5230842245       37.3760246187
  H         1.4131011000       -1.4568183086       16.3105390891
  H         1.2974461365       -2.4871231185       17.7926888478
  H         2.8483769792       -2.0926708514       16.9225607484
  H        17.9202035620        3.2999111387       22.9949512039
  H        17.5150702511        2.1367014138       21.8577174721
  H        18.5935637168        1.6042512142       23.0913311860
  C        12.0359641198        7.1171949652        9.8730008983
  N        11.9832128262        8.4954661320        9.7432700947
  O        11.1925484284       10.2843508600       10.9460189345
  S        12.8667558547        6.1337857463        8.6312491069
  C        12.1835162955        9.3355192196        8.5771160560
  H        12.3876629886       10.3810575061        8.8567260209
  H        13.0086247613        8.9706162108        8.0531305063
  C        10.8878044924        9.5300144086        7.7507262241
  H        10.3577909290       10.3561003625        8.2111149871
  H        11.1315858733        9.7434884735        6.6497927553
  H        10.1939731008        8.6588111391        7.7495428811
  H        23.7487949294       11.6775326991        3.2664429479
  C        22.8411775164       11.5191341550        3.7872047891
  H        22.4796429359       12.4811795079        4.1795787819
  C        23.2090452700       10.7654460274        5.0694840015
  C        21.6869972225       10.7930270317        3.0347503193
  C        22.2332562170       10.9958822655        6.2439293777
  H        23.3750738314        9.7133883447        4.8561781442
  H        24.2051597890       11.1253796160        5.3226959014
  H        20.6775058615       11.1355105393        3.2342221369
  H        21.6976946092        9.7392215906        3.2641044660
  H        21.8635691278       11.0064126782        1.9592639916
  C        21.3719303049        9.8011413187        6.6117521661
  H        22.8381254087       11.0822609578        7.0838866910
  H        21.7535248034       11.9050683144        6.1912730834
  C        20.3442675363       10.0510259139        7.7330383649
  H        22.0032166421        8.8358206798        6.7305274350
  H        20.7111426823        9.5794344186        5.8509128827
  C        19.1700895946       10.9379589070        7.4451005950
  H        20.9677967659       10.5534378896        8.4790308954
  H        19.9837615743        9.1186235059        8.1074053732
  C        17.9987561709       10.0348855594        6.9525855326
  H        18.8896575811       11.5535652683        8.2961815700
  H        19.4352975793       11.5690054297        6.5902882249
  C        16.6212906035       10.8521834752        6.7551003611
  H        17.8264271774        9.2849322684        7.7045537742
  H        18.3293841987        9.4239319646        6.0922292107
  C        16.9092092566       12.2400224862        6.0233931338
  C        16.1485816310       11.6200636813        7.9692109960
  C        15.4332908923       10.0452425685        6.1808490125
  C        16.6091485000       13.3174931620        6.8043409950
  C        17.5323483701       12.6570510302        4.8709003971
  C        16.1422269645       12.9876485695        8.0477081988
  C        15.7808097061       10.9610112556        9.1406226395
  H        15.7176380968        9.4287396713        5.2829344098
  H        15.1497747324        9.3006007630        6.9097666078
  C        14.1950535195       10.9229142748        5.9501809212
  S        16.9825859489       14.8208804580        6.0370186203
  C        17.6487545706       13.9765390719        4.7493471467
  H        17.9063873732       11.9209091996        4.1677910747
  C        15.8479122655       13.5839880553        9.2453413735
  H        15.8057744413        9.8786060545        9.0694251044
  C        15.3746192288       11.5586752826       10.2666524602
  H        14.4210604400       11.9630351367        5.6603811195
  H        13.6758828314       11.0350755834        6.8836249995
  C        13.1602635668       10.4280906785        4.9444839846
  C        18.1851657783       14.7096682043        3.5744000311
  C        15.3920987159       12.9316078914       10.3853464683
  H        16.1071232853       14.6576950626        9.3611331075
  C        14.9685700873       11.1719155424       11.4891124759
  H        12.3171887314       11.1848937757        4.8721347117
  H        12.7729259369        9.5294582554        5.3056332026
  C        13.6092579048       10.0208070653        3.5229353626
  C        18.0794859930       16.0921034260        3.2049323843
  C        18.7045024369       13.8140251646        2.4779510085
  C        14.7997834177       13.5464559374       11.5782234137
  C        14.5924695306       12.2581020028       12.2908579168
  S        14.6525165376        9.6333427404       12.1688353463
  H        14.2920385886        9.0867046921        3.5224763404
  H        14.2261798997       10.8460387147        3.0861581619
  C        12.4310194964        9.8542878540        2.5761721035
  N        17.6938337748       17.1265785227        4.0733857250
  C        18.3596556606       16.5572613847        1.9460920405
  C        19.0169732190       14.3107720512        1.2297113865
  H        18.9439463804       12.7489124107        2.6055570769
  C        13.5258920349       14.3010692495       11.3796646948
  C        15.9328143691       14.3276271109       12.3105746276
  C        14.1499057078       11.7768620359       13.5227869048
  C        14.1150014460       10.4216254940       13.6797805088
  H        11.6807323154        9.2460454431        3.0046697901
  H        11.8004705825       10.7325894322        2.3833315587
  C        12.9304714435        9.1709109104        1.4004435482
  S        17.6874106038       18.5058106594        3.2633718704
  N        18.1237481566       17.9011983831        1.8449558534
  C        18.8639094052       15.7700632866        0.8840135581
  H        19.5397281539       13.6644321815        0.5161829025
  H        13.7290806576       14.9634904667       10.5301894478
  H        13.3747852591       14.8416020887       12.3221837816
  C        12.3421085201       13.4420695784       11.0541938615
  H        16.1450010900       15.1310932221       11.6739127227
  H        15.6915624593       14.6759603954       13.3361260225
  C        17.2265881415       13.4763594359       12.4516023684
  H        13.9731082494       12.5085687587       14.2334347024
  C        13.7804912315        9.6431933338       14.8660812888
  H        12.1157211663        8.6286135972        0.9480353919
  H        13.6523218996        8.4157661253        1.6147989051
  C        13.4713738827       10.2089149240        0.4059667282
  C        19.1140275932       16.4103349663       -0.3613354256
  H        12.5839242066       12.6622139168       10.3838440220
  H        12.0100136933       12.8814611800       11.9094957246
  C        11.1690439671       14.3184089135       10.7298918052
  H        17.6654016281       13.1279568423       11.5568228229
  H        17.2327364313       12.5252322699       12.9914132912
  C        18.3326123083       14.3526913165       13.1157466104
  C        13.9434992967        8.2590817687       14.9939956441
  C        13.4512658499       10.3421130688       16.1208405049
  H        13.9789735300       11.1224683176        0.8295878847
  H        14.0734986523        9.7428422298       -0.3251915909
  C        12.3440702169       10.6823261323       -0.4873975884
  H        19.0702830869       17.4687340851       -0.2914050735
  C        19.3987533400       15.9027100802       -1.5868964260
  H        11.3180702126       15.0584550237        9.9070932123
  H        10.8892548571       14.7382852484       11.6272910913
  C        10.0203361256       13.3705561595       10.3375310595
  H        18.6319641517       15.0732137718       12.4614797870
  H        17.7752566401       14.7271092240       13.9209630669
  C        19.6120246878       13.5526761935       13.5906507589
  N        14.2369748856        7.3951474248       13.9586308264
  C        13.6679607630        7.5572044802       16.1751083432
  C        13.3030231456        9.6850586033       17.3412660476
  H        13.4684571263       11.3620484380       16.2958292331
  H        11.5803411394       11.1997762511        0.0881527482
  H        11.8817015041        9.8511928003       -1.0109125548
  H        12.7774349096       11.3507019324       -1.2444359618
  S        19.4581955896       14.2317428596       -2.0722114509
  C        19.5652592709       16.8567626532       -2.6985736942
  H        10.4538108312       12.7006635139        9.5947785908
  H         9.6681489824       12.7109922664       11.1940273366
  C         8.7629522724       14.0385676484        9.7334164856
  H        19.8315265930       12.7157387388       12.8552220463
  H        19.3188900435       13.0265214854       14.5016917862
  C        20.7702383663       14.4569965359       13.8088244842
  S        14.3476436767        5.8373327669       14.4288469842
  N        13.8628980604        6.1917665208       15.9468310602
  C        13.3100379303        8.1997184147       17.4131641148
  H        13.1387785044       10.2153607018       18.2426757504
  C        19.9781412886       14.8763943849       -3.6948950283
  N        19.9068325341       16.1923796723       -3.7999710587
  O        19.6413370002       18.0782503412       -2.5618476643
  H         8.3073559570       14.5395355455       10.5629295498
  H         9.0675922799       14.8018440962        9.0306745665
  C         7.7364891140       13.1374168916        9.1087170699
  H        21.7221131024       13.9079828107       13.9471679294
  H        20.9853151655       14.9479884380       12.8589104035
  C        20.4977809538       15.4922559427       14.8997578639
  C        13.1473260985        7.4442112091       18.5915602773
  S        20.1868029406       13.9216077976       -5.1520995792
  C        20.1639137638       16.9017475406       -5.0615568860
  H         8.2753276668       12.6924587830        8.3139114204
  H         7.3558218487       12.3199652762        9.7053119902
  C         6.5843046283       13.8805592010        8.5022646126
  H        20.2129116573       15.1613161984       15.8712941072
  H        19.5872021892       15.8974933732       14.6030949917
  C        21.5733527153       16.6263969605       15.1572446699
  H        13.2030228093        6.3961785836       18.3902143677
  C        12.8993791664        7.7590111927       19.8561452047
  H        20.8553879434       16.3220908875       -5.7805217064
  H        20.5227054398       17.8884558486       -4.9847399992
  C        18.8308716376       16.9202974576       -5.9724352252
  H         6.1918985046       13.3623672782        7.6790338191
  H         6.8239317567       14.8692020645        8.1479875180
  C         5.4751280307       13.8776102035        9.5547829987
  H        21.3131401612       17.0843706292       16.1304085633
  H        22.5984840255       16.2194776486       15.2080393200
  C        21.6076631722       17.5602070970       13.9321963391
  S        12.1497253624        9.2018854726       20.3786081765
  C        12.9110865173        6.6392598032       20.8188703435
  H        17.8842197693       16.5914144939       -5.4467696436
  H        18.8971191717       16.2911582283       -6.8299253822
  H        18.7498241112       17.9462146403       -6.3458456588
  H         5.9235515470       14.2978064746       10.4610593365
  H         4.8589412111       14.6207587585        9.1336809576
  H         4.9813134149       12.9991653400        9.7217226997
  H        22.3701950864       17.3564676398       13.1538563353
  H        20.5916067849       17.3459699090       13.5229705386
  H        21.5399981840       18.5799383583       14.1836990778
  C        11.9285039248        8.3568068444       21.9249076333
  N        12.2839293679        7.0946159966       21.9623979635
  O        13.2560588437        5.5029473749       20.6271627200
  S        11.3664181090        9.0490355613       23.3914405950
  C        12.1825774317        6.2273284657       23.1884254089
  H        12.0761139968        5.2201017936       22.9591971213
  H        11.2522993368        6.3602268103       23.8118464570
  C        13.3838841450        6.4524552650       24.0208443095
  H        13.9819138754        7.2197610773       23.5811055312
  H        14.0315295592        5.5893310209       24.0078397771
  H        13.1521090205        6.6057259738       25.0819695305
