352
 i =    73400, time =    73400.000, E =        24.8780889466
  H        10.3030728430        6.3317833965       32.6260639665
  C        11.3195097811        6.0572056110       32.4721301562
  H        11.9091423627        6.9703012713       32.6892404994
  C        11.5185757501        5.7640279476       30.9138772284
  C        11.7812500683        4.9443079177       33.4265550847
  C        10.8014955257        6.7639224843       29.9975820431
  H        12.6416975376        5.8343475920       30.6148835369
  H        11.1229454203        4.7660240306       30.7156589833
  H        11.0589064352        4.1440466708       33.2737509855
  H        12.7343812342        4.6098927436       33.0525466536
  H        11.9535896189        5.2231986987       34.4446192292
  C         9.7576930779        6.1668385241       28.9728038365
  H        11.5786546102        7.2309606971       29.4080242952
  H        10.2995035147        7.5176090984       30.6259352686
  C        10.4006620629        5.9821596113       27.6591998265
  H         9.3303046726        5.1389020455       29.1491809343
  H         8.9877164903        6.9197219319       28.9545849658
  C         9.5871023017        5.2712660503       26.6036827474
  H        11.2390255078        5.3264025428       27.9431463376
  H        10.8104355720        6.9277869026       27.2419025309
  C         8.3689753663        6.0552851167       26.0572743369
  H        10.2712566269        5.1324526794       25.7258794812
  H         9.3533818462        4.3386483861       26.9992655075
  C         7.3942516974        5.2088264628       25.2787988687
  H         7.8814786126        6.7033412140       26.8382129898
  H         8.7934785865        6.7911143009       25.3660566563
  C         7.0059080757        3.9020037846       26.0600107243
  C         7.7361994274        4.4428207676       24.0767913517
  C         6.1175981967        5.9605250931       24.7650764814
  C         7.2512640576        2.7563928173       25.2474444727
  C         6.5844741678        3.5829119982       27.3610839876
  C         7.6791876651        3.0700119343       23.9721048405
  C         8.1816278752        5.0342172013       22.8724777519
  H         5.8305914532        5.2688818269       23.9957748722
  H         6.4188947247        6.8717445649       24.1766960455
  C         5.0637627194        6.1753725202       25.9117733286
  S         7.0583701325        1.3200458915       26.1753375396
  C         6.4500584302        2.2160827214       27.5458671499
  H         6.3525469707        4.2930287534       28.0269491280
  C         7.9702244925        2.3603963984       22.7929093724
  H         8.4393523178        6.0872279467       22.8320842700
  C         8.3919235055        4.3583717389       21.6729929512
  H         4.9009282402        5.2945389958       26.5319577073
  H         5.4392225028        6.9661460109       26.5733991195
  C         3.7056343408        6.7061117672       25.4119768416
  C         6.0758657546        1.6149490234       28.8710704676
  C         8.3407274445        3.0229326653       21.5816856812
  H         7.9791085824        1.3370332348       22.7889076068
  C         8.7190140276        4.6591352702       20.4123201886
  H         3.3052959411        5.8549056877       24.8075383636
  H         3.8537508322        7.6747340095       24.9542101529
  C         2.7881066035        6.8808453243       26.6283006155
  C         6.1063801329        0.2143602460       29.1520450765
  C         5.6697082312        2.5347803432       30.0018637661
  C         8.5247235373        2.2017900743       20.3344611691
  C         8.8423503672        3.5423309195       19.5748968682
  S         8.9869120485        6.1109329213       19.5785941637
  H         2.1660623494        7.6888917502       26.2312753236
  H         3.4127087126        7.2099982647       27.4803317987
  C         1.9516443745        5.6137075318       26.8379220880
  N         6.4326745718       -0.8149515149       28.2151751162
  C         5.6636620958       -0.3245310575       30.3284944191
  C         5.2932683269        1.9532869563       31.2173416681
  H         5.6430340921        3.6070968177       29.9295792765
  C         7.2591184823        1.5318024263       19.8271365932
  C         9.8176134771        1.3682076940       20.3665332113
  C         9.1817439545        3.8550348771       18.2053264614
  C         9.4078783655        5.2301001913       18.1222261033
  H         1.2835379299        5.5987200331       25.9659305082
  H         2.5671584187        4.7248824131       26.9045676931
  C         0.9261823809        5.7032535665       27.9731403330
  S         6.3351674024       -2.2106369119       28.9397541801
  N         5.7791184130       -1.7269604282       30.3749621651
  C         5.2271765951        0.4871632910       31.4821166961
  H         4.8714589915        2.6436410836       31.9388730117
  H         7.1600557202        0.7352730369       20.4399956340
  H         7.4135162545        1.1454192308       18.8169752952
  C         5.9317726456        2.3342817667       19.8717193255
  H         9.9160342263        0.8536716426       19.3926037016
  H         9.7000447084        0.5975009622       21.1384066966
  C        11.0555870254        2.2858575906       20.7503096715
  H         9.1434156345        3.1445724507       17.4110963081
  C         9.8150013299        5.9054237671       16.8006320325
  H         0.1957739815        4.8876145970       27.8638782169
  H         0.4995085943        6.7313713394       27.9436381729
  C         1.6433082663        5.3721189544       29.3631922709
  C         4.9506711549       -0.1585363268       32.7146333435
  H         5.9733140398        3.0804658090       19.1263621894
  H         5.7026627327        2.8056777607       20.8553840627
  C         4.7925042919        1.5177464099       19.3744902581
  H        10.8909421702        2.9427239549       21.5963420982
  H        11.2493946806        2.9872315609       19.8890610314
  C        12.3846034041        1.4789232854       20.9333593545
  C         9.9955581045        7.2976562617       16.6567834723
  C        10.1365762521        5.0951578039       15.5985250955
  H         1.4620966418        4.3850309708       29.5969167805
  H         2.7223275263        5.3811983252       29.2888532229
  C         1.5241520042        6.3072809380       30.5604687582
  H         4.8231363063       -1.2688394126       32.5684497586
  C         4.6602362974        0.2697568699       33.9748090260
  H         3.9886178547        2.2232591434       19.4267755230
  H         4.4651294646        0.7528468973       20.0472095109
  C         4.7503457789        0.9203405998       18.0212886418
  H        12.2299610026        0.7911626375       21.7500302740
  H        12.4518165431        0.7760689951       20.0751134422
  C        13.6249505836        2.3091910823       21.1223041204
  N         9.6135604697        8.2835705189       17.6378645211
  C        10.2885558500        7.8945340530       15.4844504227
  C        10.4998953963        5.7148498690       14.3966734912
  H         9.9873408843        4.0364651683       15.5407403323
  H         1.3976299235        7.3142527443       30.1958769647
  H         0.5496327155        5.9405165559       31.0800339779
  H         2.3248942641        6.1775257041       31.2850860734
  S         4.3295107892        1.8688921159       34.4058315717
  C         4.6198071834       -0.7300636635       35.0818850279
  H         5.1743048785        1.7113279213       17.4461885158
  H         5.4571795747        0.1860843193       17.8442831856
  C         3.3431025511        0.4569636547       17.4683780402
  H        13.3152225027        3.0936283735       21.7723101522
  H        13.9002864172        2.7828934984       20.1957931883
  C        14.8108728257        1.4830008883       21.6630149175
  S         9.7702261912        9.7688336259       16.9712432252
  N        10.4298204376        9.2486559725       15.5409718518
  C        10.5632128742        7.1760157485       14.2817793055
  H        10.5870910269        5.0080303756       13.5716208259
  C         4.1132871251        1.2690894758       36.0294053039
  N         4.2463470980       -0.0753456407       36.1876468738
  O         4.7320288280       -1.9354607231       34.9379610801
  H         3.4576832623        0.2370339614       16.3994015690
  H         2.7433770168        1.3188177155       17.6286526429
  C         2.7286972341       -0.7148848862       18.2619809732
  H        14.5403533135        0.5595863333       22.1316976616
  H        15.4262712190        1.1215273932       20.8306639638
  C        15.7199161255        2.3641942846       22.6101479711
  C        10.8771883471        7.9972712264       13.1466052877
  S         3.7876378663        2.0914539410       37.5315082726
  C         4.2401089901       -0.7942507587       37.5048314642
  H         3.4974660637       -1.3575973264       18.7706637883
  H         2.2958804231       -0.1943699465       19.0698398172
  C         1.8163175453       -1.5979703000       17.3395074130
  H        15.2314793475        2.3635601747       23.5596404507
  H        15.7976239366        3.4451152188       22.2857784732
  C        17.1154271742        1.7479265880       22.7373570479
  H        10.3382397511        8.8991225463       13.1604871430
  C        11.5340640165        7.7073489673       11.9319378669
  H         3.5164300118       -0.4507524544       38.1823833992
  H         3.8165481701       -1.7029502906       37.1874660710
  C         5.6945562461       -0.9233755020       38.0749925095
  H         1.0246758479       -0.9790877643       16.9370710651
  H         1.3023277754       -2.3756056373       18.0491945726
  C         2.6354688268       -2.1864991843       16.1850027001
  H        17.5392387164        1.6998731503       23.7365922091
  H        16.8851734937        0.7069275638       22.6135452220
  C        18.1468809325        2.1055194831       21.6948859266
  S        12.1845398741        6.1309914162       11.6064147790
  C        11.4360074095        8.6212811285       10.7710932101
  H         5.5873707304       -0.1867744445       38.8440761282
  H         6.1224782130       -1.8166099570       38.5276331609
  H         6.3661545446       -0.6111679450       37.2884818740
  H         2.2536103325       -3.2040371158       15.9312580675
  H         3.5577253552       -2.4598642608       16.6337839389
  H         2.8958911626       -1.5474706486       15.3553963530
  H        18.7257602963        2.9807283767       21.9586376007
  H        17.6244417990        2.2167501887       20.8092869078
  H        18.8140825642        1.2989650634       21.6207025378
  C        12.4227813402        6.7430598461        9.9832649611
  N        12.1039592194        8.0489248625        9.7612090800
  O        11.0880465642        9.8149672232       10.8148716647
  S        13.0486306514        5.8354605341        8.6232845912
  C        12.2348366674        8.6857341237        8.4250705425
  H        12.3648028189        9.7306537028        8.6669503712
  H        13.0824520119        8.3552372151        7.8523826733
  C        10.9641470606        8.5579684003        7.6855369993
  H        10.1149767487        7.9377533158        8.1931237992
  H        10.5558765462        9.5576224006        7.5514339604
  H        11.2327401378        8.1227403644        6.6712122510
  H        21.2596882262       11.7417685204        3.8930551418
  C        21.1597395753       10.7790319883        3.4710330583
  H        20.2272018740       10.2977581943        3.7199221020
  C        22.3108386391       10.0600778517        4.1453999525
  C        21.3129551026       10.9797512134        2.0130784526
  C        22.1445077131        9.7281298698        5.6114728667
  H        22.5938317048        9.2479921731        3.4563166318
  H        23.1663825300       10.7893592395        4.0782801773
  H        21.5792839400       10.0022084917        1.5678734998
  H        22.0951326427       11.6226345038        1.7722219887
  H        20.3123157602       11.1397276657        1.5663406494
  C        21.0160029846        8.6409600694        5.8138142322
  H        23.1361319533        9.3728237403        5.9268530355
  H        22.0563459981       10.6135115077        6.3537157744
  C        20.0494498684        9.0370100375        6.9620637618
  H        21.5271674500        7.6313333985        6.0147589908
  H        20.5036914834        8.4240198090        4.8446733003
  C        18.7962540902        9.6395770350        6.3737576009
  H        20.5405196204        9.7097299229        7.6716030196
  H        19.7698117154        8.1463838334        7.4459821262
  C        17.6487188041        9.6532250798        7.3492346460
  H        19.0949282591       10.6225039136        6.0121975716
  H        18.4068793754        9.1127630417        5.5367580315
  C        16.4484536639       10.6041801698        6.9765865175
  H        18.0035748715        9.8240499179        8.3824586571
  H        17.3438439002        8.7060257158        7.2691270737
  C        16.9791454265       11.9101296281        6.2964905122
  C        15.9561974496       11.3625571731        8.1512038221
  C        15.2818093732        9.9326659238        6.1718768451
  C        16.7464752860       13.0300515120        7.0374925241
  C        17.4606192270       12.2582797437        4.9874206422
  C        16.1706384462       12.7182903772        8.2465892979
  C        15.3553904123       10.7374442682        9.2487246038
  H        15.7284765611        9.3980801146        5.2852522852
  H        14.9088109725        9.1077385196        6.6922740557
  C        14.0977498027       10.8008843269        5.8571196044
  S        17.1809354098       14.4712647140        6.2761375628
  C        17.5430404222       13.5786655354        4.8352278699
  H        17.5302946476       11.4408419058        4.2690131253
  C        15.7927302417       13.3695273292        9.3665900002
  H        15.4035447971        9.6522347241        9.3775482420
  C        15.0195354378       11.3846937410       10.3837083662
  H        14.5684900951       11.6043568357        5.2572285491
  H        13.6497455537       11.2828443165        6.7401703845
  C        12.9975040710       10.2171223830        5.0388120885
  C        17.8760806932       14.2666799250        3.5528340586
  C        15.1424808848       12.7686404886       10.5184803981
  H        16.0271512371       14.3778835614        9.4873626553
  C        14.6984750043       10.9710846136       11.6095288626
  H        12.1311633475       10.9032281451        5.0220958557
  H        12.7255955432        9.1804753063        5.4124787802
  C        13.4139879529       10.2607646227        3.5541881276
  C        17.8926739615       15.6802277484        3.2339996957
  C        18.2836655200       13.3720985072        2.4309336614
  C        14.7771290028       13.4421552272       11.8036134638
  C        14.5027585100       12.0510584497       12.4191940843
  S        14.5386797698        9.4548032870       12.4381407628
  H        14.3493374029        9.7508669798        3.4208634618
  H        13.5168414637       11.3173047072        3.2983078022
  C        12.3889344935        9.6782669842        2.5611729789
  N        17.5655083317       16.6533698247        4.1678334083
  C        18.1563376316       16.1637150456        2.0047243422
  C        18.6120464666       13.8964332404        1.1548693550
  H        18.3216933416       12.3238674902        2.5190216529
  C        13.4191103409       14.1818766601       11.6616229182
  C        15.9347820666       14.1519417528       12.4982783060
  C        14.1906621029       11.6648847680       13.7223899731
  C        14.2465185879       10.3162689130       13.8846879697
  H        11.8286706909        8.8651801820        2.9567054192
  H        11.7234833198       10.4857848450        2.3119481457
  C        13.0418982972        9.1047694141        1.2705539245
  S        17.6813354273       18.1270720326        3.4549565863
  N        18.0268030284       17.5621330886        1.9734709970
  C        18.5405368930       15.4061418177        0.8854094060
  H        18.9122308704       13.1938751387        0.3486615270
  H        13.5650513724       15.0369377482       10.9887640356
  H        13.0641056493       14.5962139747       12.6701132367
  C        12.2238531282       13.3247483107       11.1558738564
  H        16.2085989070       15.0663691818       11.8906514610
  H        15.5259210812       14.5806400936       13.3507402702
  C        17.1662923407       13.2193277746       12.9552504747
  H        13.8832112039       12.3644133325       14.4279313201
  C        13.8479775630        9.6323522627       15.1976405127
  H        12.3849465709        8.3806672857        0.6555911949
  H        13.9071197902        8.5214353796        1.6014898037
  C        13.4840508873       10.1700795279        0.2298279872
  C        18.8585422947       16.0843428337       -0.3826978729
  H        12.5218635095       12.6731244390       10.3519513399
  H        11.9406371459       12.6010844708       11.9491363423
  C        11.0620695165       14.2043155111       10.7253355663
  H        17.5270440251       12.4088005454       12.3657802465
  H        16.8083222218       12.8170345797       13.9860202264
  C        18.3501854066       14.1370612390       13.1813212038
  C        13.7545240485        8.2623817928       15.3515202943
  C        13.5700859403       10.4396400023       16.4241575567
  H        13.6376904073       11.1404441384        0.7097986119
  H        14.3756116325        9.9028876940       -0.2204107108
  C        12.3710759924       10.4742510093       -0.8232277683
  H        18.5694297634       17.1486891679       -0.3866107394
  C        19.1149482037       15.6970743976       -1.7101165072
  H        11.3116747869       14.9471526546        9.9677246371
  H        10.6781187419       14.8202291386       11.4746989376
  C         9.9384189763       13.3436604640       10.0907791100
  H        18.7873598360       14.2882210532       12.1878813638
  H        17.9195009219       15.0399769289       13.5092567351
  C        19.4036429628       13.7156992428       14.1828545539
  N        13.9338567711        7.3217823790       14.3813263031
  C        13.4452692124        7.6713201757       16.5855984796
  C        13.2574894773        9.8688244564       17.7448789562
  H        13.7092911378       11.4972777960       16.4613021057
  H        12.3037908442        9.5355141156       -1.4510908119
  H        12.6559702587       11.3478909030       -1.4217564031
  H        11.4034944837       10.6173036997       -0.4433895949
  S        19.5907985480       14.1635258527       -2.1753282056
  C        19.3520134147       16.7217526481       -2.7146050577
  H        10.2367296252       12.4659694563        9.5014680200
  H         9.4183744590       12.9970317723       10.9995087786
  C         8.9892348329       13.9974606730        9.1331328516
  H        20.1349887084       13.1081381761       13.7119217679
  H        18.8993476039       13.0608844919       14.8880840680
  C        20.1514959023       14.8932559168       14.7827789019
  S        13.9182423091        5.8214963354       14.9757339124
  N        13.5268007591        6.2434416998       16.4770812550
  C        13.2350358754        8.3949478012       17.7989837632
  H        13.1409173937       10.5346382356       18.6568095238
  C        19.9160822110       14.8086891015       -3.7715710692
  N        19.7361989080       16.1288618371       -3.8408279557
  O        19.1743030602       17.9105272662       -2.5187567244
  H         8.4964188095       14.8834145647        9.5245606394
  H         9.5626589081       14.2930793284        8.2545047565
  C         7.9331035988       12.8914823456        8.7945129809
  H        19.4767717186       15.5645300609       15.3799216092
  H        20.9580969341       14.4989599105       15.4512923281
  C        20.7770880019       15.8474132525       13.7941093315
  C        12.8664255829        7.6163277405       18.9231705957
  S        20.2345289800       13.8811200511       -5.2457943562
  C        19.8363576566       16.8439970294       -5.1172635226
  H         8.4736384497       12.3455323309        7.9951922422
  H         7.7762709558       12.2383070726        9.6509780513
  C         6.7091025827       13.4900572161        8.2364814545
  H        20.0110410523       16.1910484094       13.0998302222
  H        21.5092493806       15.3451846659       13.2093813035
  C        21.4420164207       17.0090070105       14.5719888124
  H        13.1957749539        6.6085140999       18.8412168956
  C        12.2382610943        7.9943681100       20.0353469536
  H        20.6444080688       16.3713532853       -5.6910720680
  H        20.2383999224       17.8890154664       -5.0158539253
  C        18.4461607113       16.7868006579       -5.7581210969
  H         6.3211984784       12.7743814795        7.5099115390
  H         7.0207972549       14.4047462410        7.7499552946
  C         5.7482691905       13.7197072685        9.3461789789
  H        21.8325651234       16.5864062348       15.4939311657
  H        22.2767065847       17.4161550405       14.0773114081
  C        20.4544707625       18.1723414741       14.7461142709
  S        11.3808028079        9.4525395206       20.4310649003
  C        12.1453691250        6.8935798709       21.1471476751
  H        18.7870016548       16.9286678009       -6.7714440572
  H        17.8025354520       17.6277814301       -5.4150001722
  H        17.9938911445       15.8197190234       -5.6368096906
  H         5.6136700590       12.8309796082        9.9749951834
  H         5.9926166896       14.5373155614        9.9729113880
  H         4.7445244323       14.0260859117        9.0466527744
  H        20.7722308055       19.0901645330       15.3466476754
  H        19.9715772951       18.3819765520       13.7688433286
  H        19.5280434913       17.7022455639       15.1972962145
  C        11.2147348270        8.7225163195       22.1223293256
  N        11.5237905766        7.3887539870       22.2204045232
  O        12.5989176902        5.7407742369       21.1328051388
  S        10.5260029507        9.4837222963       23.6344644905
  C        11.3393554680        6.6316915834       23.4480477838
  H        11.2115904002        5.5341298844       23.2524890856
  H        10.3958654288        6.9195458994       23.8884537650
  C        12.4297888830        7.0128707027       24.5311744795
  H        12.7347741195        6.0792760767       25.0568567230
  H        12.0562354345        7.7218053684       25.2355508551
  H        13.3149282872        7.4446934338       24.0635158068
