352
 i =    70400, time =    70400.000, E =        25.0210962305
  H        12.3349424499        4.7902487091       32.0583180629
  C        11.4534456854        5.2518864975       31.6409405781
  H        10.8368083471        4.3528160810       31.3106940976
  C        11.7507637658        6.1988164790       30.5324713534
  C        10.8388636888        5.9311997983       32.9046441720
  C        12.5627391085        5.6286312560       29.3715894858
  H        10.7823470462        6.5473176166       30.1707422404
  H        12.2500175118        7.1441469583       30.9284903022
  H        11.3940621449        6.8042790524       33.0594273348
  H         9.7486436629        5.9477948803       32.9159282259
  H        11.0739795906        5.3500520498       33.8176819056
  C        11.6850899946        4.7453306443       28.4566044803
  H        13.3955459934        5.0802220440       29.7682603634
  H        12.7917971098        6.4734079859       28.8433239481
  C        11.0295949154        5.5001253877       27.3093077490
  H        12.5180538490        4.1591489783       28.0377358127
  H        11.1282161518        4.1115412574       29.1734958097
  C        10.1276090485        4.6849920212       26.3926666600
  H        11.8464714736        5.8363345343       26.6916996747
  H        10.5192330217        6.4361271324       27.6116348797
  C         8.8821780041        5.5193423738       25.9317013513
  H        10.6526357268        4.2608306637       25.5108820127
  H         9.7785482990        3.8590526723       26.9950815955
  C         7.7181808373        4.7419074154       25.1110925147
  H         8.4527703413        6.0648787584       26.8241541764
  H         9.1003825079        6.2916910908       25.2652238942
  C         7.3349744992        3.4262830673       25.7385936456
  C         8.1716175615        4.0503119878       23.9258034014
  C         6.5038307001        5.5795494960       24.6447411786
  C         7.5522769135        2.3251849537       24.8944857792
  C         6.8237248551        3.0856307543       27.0444448203
  C         8.0550994175        2.6953231509       23.7552132528
  C         8.6487585958        4.7748035308       22.8310300707
  H         6.0854313521        5.0104264735       23.8278898072
  H         6.8641936772        6.4428772825       24.1033956872
  C         5.3842971993        5.9465897460       25.6768785201
  S         6.9394215648        0.9218309032       25.5946230434
  C         6.5488414132        1.7295548025       27.0406616725
  H         6.7649970281        3.8778263992       27.7904615215
  C         8.3955922075        2.0869349075       22.5840006909
  H         8.7117077794        5.8529141242       22.8769011215
  C         8.9461459755        4.1400655600       21.6493423668
  H         5.2989956553        5.0441948885       26.2774693233
  H         5.7714256895        6.8614724192       26.2103913206
  C         3.9483947156        6.1137124515       25.1235737147
  C         6.2466927370        1.0313051922       28.3035573374
  C         8.9118550592        2.8050329162       21.5103401128
  H         8.3249729090        1.0128633877       22.3623947766
  C         9.4063883823        4.5423672872       20.3751370406
  H         3.6811393407        5.4695085197       24.3187297505
  H         3.9872748248        7.0292778978       24.5656119024
  C         2.8268879629        6.3033043211       26.2289295233
  C         6.2189269638       -0.3815990078       28.5078690655
  C         5.9117282557        1.8223304723       29.4879417233
  C         9.2766445869        2.0696423071       20.2221155901
  C         9.4580254742        3.4454478309       19.5319429540
  S         9.6269815924        6.0623163609       19.6108432679
  H         1.9806775069        6.7012681547       25.5897337104
  H         3.0948215227        7.1152318835       26.9645331002
  C         2.3364572720        4.9562728115       26.7615885247
  N         6.3410979525       -1.3593625435       27.5124504081
  C         6.0263585749       -0.9564300885       29.7541142540
  C         5.5461800809        1.2134437471       30.7109594346
  H         5.9512614158        2.8616977751       29.4425213835
  C         8.0845316847        1.2869237471       19.6016321008
  C        10.5247677266        1.3116488677       20.3607658695
  C         9.7298531680        3.8697267715       18.2296103038
  C        10.0473699542        5.2073716920       18.1541313973
  H         1.2766589283        4.8120840229       26.5038985945
  H         3.0054881750        4.0966271283       26.3352463855
  C         2.4054469015        4.9174880798       28.3333962601
  S         6.3188443843       -2.8447108359       28.1883551191
  N         6.0890386057       -2.3485416739       29.7408932760
  C         5.6509595220       -0.2526061458       30.9186364526
  H         5.3317955279        1.8869896735       31.4837417643
  H         7.8985972021        0.3789625403       20.1571188408
  H         8.4518425555        1.0908294945       18.5450538507
  C         6.8126824380        2.1064253652       19.6295405494
  H        10.8697364657        0.8692010737       19.4531717025
  H        10.3319650422        0.5396164461       21.0563740837
  C        11.7228960283        2.1181799049       20.8811952493
  H         9.7624851046        3.0789513206       17.4773022158
  C        10.4303570714        5.9009028097       16.9188394763
  H         1.5937432460        4.3083940248       28.7465624873
  H         2.1796642793        5.9244735123       28.7618736143
  C         3.7050407816        4.4943708193       28.9033280671
  C         5.3869577557       -0.9329838639       32.1619609334
  H         6.7920277245        3.0938589124       19.1932210400
  H         6.3342133291        2.2222084702       20.6528596408
  C         5.5831354402        1.3699069210       19.1066728185
  H        11.5083490257        2.4848111077       21.8380593235
  H        12.0439380864        2.8807157493       20.2036308142
  C        13.0069304379        1.3448454046       21.3076804580
  C        10.4105842485        7.2985784328       16.7770849587
  C        10.6978158160        5.1492951496       15.7162688458
  H         3.8438383766        3.4606286525       28.8503516406
  H         4.5575730651        4.9041407820       28.3593962976
  C         3.7514904367        4.7883194464       30.4061036402
  H         5.7145133848       -1.9893467487       32.2168144202
  C         4.9513697431       -0.5082014378       33.4256087322
  H         4.9337398434        2.1853539132       18.9054358641
  H         5.0941449926        0.6724688760       19.8702244421
  C         5.6659916836        0.6306293855       17.7828207310
  H        12.6655775486        0.6140721062       21.9982728345
  H        13.4014153847        0.7014701765       20.5547967135
  C        14.1474066723        2.2568961562       21.7356555350
  N        10.2136647033        8.2584005768       17.8384287893
  C        10.7156588938        7.9823282313       15.5996524025
  C        10.8497966455        5.7825599276       14.5018368328
  H        10.6439729931        4.0571432194       15.8615490158
  H         3.3654625102        4.1140929670       31.0537102500
  H         4.8701320503        4.8037348449       30.5998159757
  H         3.2213152622        5.7072677499       30.6791207081
  S         4.4850602039        1.1072221253       33.7783211370
  C         4.9631535408       -1.3975226245       34.5582050593
  H         6.5045611953        1.0146628670       17.1573976013
  H         5.8274279668       -0.3672351284       17.9849889957
  C         4.2726195643        0.6171948601       17.0639407137
  H        13.7625722853        2.8139807972       22.6166326605
  H        14.3159198295        2.9577648762       20.9280263870
  C        15.3881908265        1.5214918293       22.2721872364
  S        10.3428339232        9.7568565695       17.2570288768
  N        10.5752219480        9.3873470536       15.7370665398
  C        10.9476529575        7.2345559260       14.4886290133
  H        11.0374596929        5.1401697338       13.6362668274
  C         4.3261291136        0.5752682229       35.4310163769
  N         4.5749738168       -0.7223372471       35.6067167278
  O         5.3968257373       -2.5388225049       34.5016607478
  H         4.3273086952       -0.0489204983       16.2347308482
  H         3.9722708182        1.5957907818       16.6524400603
  C         3.0751493715        0.2136476754       17.7887610771
  H        15.0331704645        0.6819795832       22.8360611061
  H        15.9030751541        1.1477258839       21.3958557516
  C        16.2588154693        2.4525205686       23.1383933944
  C        11.1844867219        7.9732404099       13.2595485551
  S         4.0266194650        1.4986668198       36.9256471345
  C         4.7129769117       -1.3364934305       36.9884525444
  H         3.1085381670        0.6573590032       18.7761250430
  H         2.2044603062        0.5357286424       17.2625674691
  C         2.9772883579       -1.3101254270       18.0113507573
  H        15.6478091041        2.8916520348       23.9899402413
  H        16.6195027314        3.2967233525       22.5854852424
  C        17.5162754363        1.6692947073       23.5877952367
  H        10.7691429686        8.9293055401       13.1836123161
  C        11.7443185066        7.5652188479       12.0786299644
  H         4.0377979046       -0.8883870173       37.7016520355
  H         4.3750221197       -2.3242077710       36.8703801222
  C         6.1671994933       -1.3222474886       37.5197347949
  H         2.2695101557       -1.4067413047       18.9194997109
  H         3.9823874296       -1.6613359242       18.3465788964
  C         2.5092663605       -2.1998681271       16.8447430149
  H        17.8693403707        2.2675793656       24.4721463349
  H        17.3708866872        0.5976786157       23.9075025049
  C        18.4950140152        1.6859282087       22.3866831697
  S        12.4350315732        6.0296468522       11.6321385313
  C        11.7633018996        8.5416235319       10.9428272627
  H         6.8400052258       -1.3467623246       36.6267366917
  H         6.2839934591       -0.3449867577       38.0096524403
  H         6.5769184188       -2.0508324531       38.2345320234
  H         1.9444358644       -1.7374026495       16.0518239070
  H         2.0718549502       -3.0831709602       17.2488419461
  H         3.4042671277       -2.5212893907       16.2818606524
  H        18.5922259989        2.7109388111       22.0523959643
  H        18.1906145832        1.0738245545       21.4816521915
  H        19.4348092530        1.2882289508       22.7034164291
  C        12.6877370541        6.7372684661       10.0241613051
  N        12.3023292758        7.9992464436        9.8615499754
  O        11.4306286112        9.7467272225       11.0672396217
  S        13.2083299072        5.8364600006        8.5963834696
  C        12.4555598531        8.7666860058        8.6371623416
  H        13.0194137956        9.6483835825        8.8987912509
  H        13.1054477268        8.2207033507        8.0081495167
  C        11.1568732391        9.0973517863        7.9996776703
  H        11.0348744798        8.2207126749        7.2861066046
  H        10.3142518440        9.2326794025        8.6070641477
  H        11.2852999553        9.9328657701        7.3624375883
  H        21.6330020596        9.0079716779        3.1964530127
  C        22.4188206460        9.7306291052        3.0007279048
  H        23.2987059309        9.2317671880        2.5357969787
  C        22.8108593086       10.5312811802        4.1881216697
  C        21.8662787728       10.6361138043        1.9369759578
  C        21.7328554980       10.6725913499        5.2807702464
  H        23.6616579672        9.9841277879        4.6158996701
  H        23.1318265737       11.5328775868        3.8844379044
  H        22.2455753541       11.7108664798        1.9349938720
  H        20.7801393201       10.6355235805        2.0330085286
  H        22.0477771263       10.2351358317        0.8846510589
  C        21.4495134474        9.2819344682        5.9581670141
  H        21.9529741077       11.4429463158        5.9858176535
  H        20.8663425980       11.0346593500        4.7610162799
  C        20.8374869276        9.2505543914        7.4098375746
  H        22.3993035239        8.7380871904        6.0257875229
  H        20.8626735458        8.8077039752        5.1744732308
  C        19.5331093360       10.1544846251        7.5908307138
  H        21.5092394233        9.6353947426        8.1353648231
  H        20.5830650042        8.2275984147        7.7077824470
  C        18.3012902501        9.4801365070        6.9645111045
  H        19.2578631200       10.3006847124        8.6290022703
  H        19.8983168601       11.0519185381        7.1223380483
  C        17.0752621778       10.4025934178        6.7405134392
  H        18.1090859820        8.5936946653        7.5449220111
  H        18.6525552708        9.1479186500        5.9356200637
  C        17.3893289285       11.7459361411        6.0943409259
  C        16.6660274924       11.0453962766        8.0271239490
  C        15.8543575043        9.7449664206        6.0720784392
  C        17.1926867371       12.8119934689        6.9528441117
  C        17.7708849520       12.1605375038        4.8357252407
  C        16.5983769821       12.4092570849        8.1383381763
  C        16.1000483968       10.2864973784        9.0621953497
  H        16.1027063448        9.1200013908        5.1951012846
  H        15.4497998211        9.0621329728        6.7927828898
  C        14.7073155018       10.6871931013        5.6149836143
  S        17.6983648232       14.3051739845        6.2632738924
  C        18.0030914154       13.5084005921        4.7014645514
  H        17.7590409128       11.4230248488        4.0772287965
  C        16.1962548253       12.9936922180        9.2597144097
  H        16.1097990921        9.1956932675        8.9549679025
  C        15.6365901257       10.8753432649       10.2688510926
  H        15.0889472698       11.6219892824        5.2228460796
  H        14.0484569386       10.9785190597        6.4844238969
  C        13.7033818805       10.0230829941        4.6618126281
  C        18.4576862202       14.2198988603        3.4235072055
  C        15.6823377112       12.2202456930       10.3210027976
  H        16.1448624150       14.0847874058        9.3092119836
  C        15.1304338421       10.4870339688       11.4772377215
  H        12.6951022671       10.4917961116        4.8103844828
  H        13.4876444018        8.9525803873        4.8022050658
  C        14.0374918453       10.1755701865        3.1646966276
  C        18.3479707066       15.5689496492        3.1267739997
  C        19.0490497410       13.3522964394        2.3228943942
  C        15.2556099265       12.9008060720       11.6024636255
  C        14.9609261881       11.5396674676       12.3193491237
  S        14.9675703723        9.0315341337       12.3128326577
  H        14.9982828875        9.7765043748        3.0190413162
  H        14.1205594628       11.2087944109        2.9511342545
  C        12.9490156826        9.7023181771        2.2381554202
  N        17.8107084169       16.4990159966        4.0564034867
  C        18.5243605803       16.0913301866        1.8827684964
  C        19.2975438616       13.9116793816        1.0748314069
  H        19.3165259860       12.3706001055        2.3724892445
  C        13.9107330557       13.7389106933       11.5789805124
  C        16.4363921954       13.6137627511       12.2884018659
  C        14.6507750376       11.0982591730       13.6110360861
  C        14.5916908075        9.7568860966       13.8100247922
  H        12.2973452876        9.0615985629        2.7720438710
  H        12.3486507963       10.6445617155        1.9914063064
  C        13.3966377186        9.0852448349        0.9221637194
  S        17.7808198455       17.9808442848        3.3128032882
  N        18.5053818651       17.4802092751        1.8919329201
  C        18.9222264576       15.3307538103        0.7650444543
  H        19.6135844139       13.3019714633        0.3033679142
  H        14.0143187213       14.7014485547       11.0484077892
  H        13.5592432042       14.2049443238       12.5329286929
  C        12.7736934587       12.9191183503       11.1373369761
  H        16.7412359979       14.4706919807       11.6595357693
  H        15.9133703359       14.0087359957       13.1655033254
  C        17.6857041234       12.8644190313       12.7646721207
  H        14.4872813398       11.8154912014       14.4537940931
  C        14.2551033610        9.0057967305       15.1090347936
  H        12.7915075714        8.2248432054        0.5951168162
  H        14.3628905174        8.6985303680        1.1511322466
  C        13.6371734466       10.1145772814       -0.1914179480
  C        19.2681917620       15.9933149438       -0.4335572709
  H        13.0234209038       12.4548758985       10.2182939365
  H        12.5353059831       12.0785978029       11.8413452293
  C        11.4708320016       13.6953078587       10.7639131903
  H        18.2692112193       12.5468808192       11.8623628857
  H        17.3804490823       12.0060472173       13.4014078089
  C        18.5734598237       13.7122191923       13.6292843786
  C        14.2380602321        7.5641483155       15.2735214832
  C        13.8641145852        9.7581689181       16.3097410266
  H        13.9395366191       10.9850729828        0.3643749686
  H        14.5053436775        9.8148971595       -0.8018393901
  C        12.3894701221       10.3493634869       -1.0902624735
  H        19.1224559843       17.0809985266       -0.2943183625
  C        19.5760581256       15.7015276629       -1.7194511405
  H        11.6747925992       14.6787313244       10.3390668890
  H        11.0251887034       13.9197893390       11.7120295995
  C        10.6160098143       12.8176287895        9.8451544944
  H        18.7423357173       14.6588910691       13.1002542824
  H        18.0680140408       13.7473196538       14.5958654810
  C        19.8871082302       12.9825277939       13.8939703967
  N        14.4143571068        6.6510695278       14.2537788045
  C        13.8362415210        6.9657462325       16.4867223196
  C        13.6833360956        9.2063706430       17.5565222965
  H        13.9186613520       10.7889221444       16.2126181520
  H        12.4207976445       11.3270281590       -1.5748841358
  H        11.4842265910       10.2120318637       -0.5084513533
  H        12.3442333447        9.7210832570       -1.9959635982
  S        19.6798438110       14.1453428852       -2.3489912935
  C        19.6822969037       16.7421821186       -2.7463052668
  H        11.2657817343       12.4246242105        9.0205851753
  H        10.2757018746       11.9343974230       10.4308139534
  C         9.4809053115       13.6135238555        9.2923929433
  H        20.2880180446       12.6087248004       12.9727111755
  H        19.6710209784       12.1784635562       14.5557494502
  C        20.8464938583       13.9252499889       14.5632176776
  S        14.4219503728        5.1748145444       14.8970046416
  N        13.9660931918        5.5579637688       16.4046673545
  C        13.5332217270        7.7044420072       17.6534907579
  H        13.5236694008        9.8640072163       18.3918479584
  C        20.1479509814       14.8989446943       -3.9084222289
  N        20.0259577208       16.2201074071       -3.9630824932
  O        19.4205088955       17.9078750348       -2.6147591521
  H         8.9841226102       14.1666267622       10.1236155214
  H         9.8215534221       14.3135231198        8.5291266203
  C         8.3079715169       12.8892066594        8.6057090569
  H        20.3125143591       14.7383351669       15.0083828633
  H        21.3344797417       13.3909518536       15.3316839603
  C        21.8672005127       14.5852427855       13.5903078634
  C        13.1282137052        7.0387438376       18.8524284046
  S        20.5361079673       14.0000237655       -5.3377765285
  C        19.9598197051       17.0043937520       -5.1835398722
  H         8.6747014271       12.5772504734        7.5414570531
  H         8.1719234655       11.9635679708        9.1154341854
  C         7.1140099227       13.7839275269        8.4549823558
  H        21.4145235214       14.7660354789       12.6604900939
  H        22.7180518770       13.8792789391       13.2962427409
  C        22.4101427136       15.7737143134       14.2356458569
  H        13.0719795936        5.9804747218       18.7631954607
  C        12.7305314112        7.4318890750       20.1090060088
  H        20.6741777703       16.6297177976       -5.8721679705
  H        20.1874056763       17.9968628448       -4.9328344120
  C        18.5232365143       16.9316307416       -5.8510840938
  H         6.4676109656       13.1953403601        7.8068176436
  H         7.1975573527       14.7272859134        7.9667437742
  C         6.2694355390       13.9343483765        9.7008379764
  H        22.2895186603       15.6557141510       15.3413703833
  H        23.4960289167       15.8117734535       14.0747109552
  C        21.6561094881       17.0308621973       13.7766297855
  S        12.3233004844        9.0192958209       20.6454846495
  C        12.6625780883        6.3977603503       21.1799492425
  H        17.8053218682       16.5743267121       -5.0838704389
  H        18.5620269738       16.2122784776       -6.6255598540
  H        18.1569618423       17.8117386946       -6.3784299126
  H         6.0379500448       13.0136070235       10.0931539134
  H         6.8393729297       14.4704214198       10.4410304599
  H         5.3120285123       14.4137428285        9.4563247074
  H        21.0242835505       16.8710311404       12.9180276482
  H        21.0787842379       17.3687861754       14.6841838707
  H        22.3650786357       17.7759328979       13.5196859150
  C        12.0536001729        8.2728546995       22.2458783958
  N        12.1746871327        6.9169088680       22.3034471782
  O        12.8744560325        5.1625227604       21.0319969036
  S        11.5619687127        9.1310182982       23.7114316402
  C        12.1056290674        6.0707934494       23.5104203194
  H        12.2496494532        5.0177990956       23.1750195474
  H        11.2196689141        6.1622201816       24.1235849820
  C        13.2883710086        6.4008376916       24.3853192193
  H        14.0666927611        6.6717141969       23.7447694189
  H        13.7447352766        5.6430772199       25.0542759430
  H        13.1550964782        7.2097083712       25.0080895182
