352
 i =    38400, time =    38400.000, E =        25.0952451422
  H        11.8918808428        7.1855269855       32.1780629551
  C        11.5379052473        6.1682655933       32.3865211229
  H        12.3045321266        5.4417648689       32.3162196999
  C        10.4390004560        5.8812056549       31.4400384417
  C        11.0336106116        5.8934395540       33.8262578727
  C        11.0415617545        5.7781172615       30.0225860310
  H        10.0086710602        4.9399079899       31.6856425873
  H         9.5869893703        6.5582293201       31.5948707039
  H         9.9345597798        5.8042306719       33.8865599178
  H        11.5281934703        4.9589509248       34.1588688080
  H        11.2938290911        6.6804255776       34.5487725395
  C        10.0563668219        5.5894970361       28.9300883988
  H        11.8334934686        4.9910010321       29.9888510204
  H        11.6249494839        6.7200151392       29.9523811030
  C        10.8561683569        5.3787343955       27.6351719579
  H         9.4118898007        4.6853498703       29.2085498910
  H         9.3929306363        6.4497766655       28.8952974325
  C         9.9242865636        4.7646006482       26.5183079749
  H        11.7085792858        4.6950449399       27.8207268645
  H        11.3999331313        6.2366246599       27.2437439443
  C         8.7201111596        5.6473744790       26.2620304407
  H        10.4115820069        4.4498907799       25.6045374417
  H         9.5140930065        3.7777247194       26.8922958818
  C         7.4888274987        4.9833193599       25.5090591826
  H         8.3285763643        6.1206037478       27.1142931640
  H         9.1122298803        6.4713680408       25.6852594999
  C         7.0861257620        3.6335099352       26.0217973170
  C         7.8611453988        4.3079361865       24.2532807012
  C         6.3515634704        5.9669572771       25.2827289090
  C         7.2778994756        2.5429479768       25.2375412637
  C         6.5031994434        3.2524577535       27.2702294174
  C         7.8075715622        2.9722420976       24.0313512705
  C         8.4442181315        5.0649165227       23.1909357891
  H         6.7201476757        6.9139669515       24.8409808803
  H         5.9827503105        6.2536213652       26.2431469501
  C         5.1379655017        5.3653586938       24.5519775339
  S         6.9249399561        0.9973553121       25.9862605319
  C         6.3397457390        1.9263616336       27.2944066669
  H         6.2689288968        3.9746342052       28.0433768697
  C         8.2089701866        2.4022991165       22.9084131326
  H         8.4565922607        6.1524381626       23.3631052347
  C         8.7945153242        4.4803920043       21.9565014573
  H         5.4396081355        5.3748699855       23.5388137470
  H         4.8607284881        4.3877114276       24.9085085571
  C         3.8546597445        6.1612507261       24.6355437184
  C         5.8254959445        1.2151813077       28.5462219367
  C         8.6257972872        3.1484576380       21.8104072648
  H         8.1618624166        1.3264443609       22.8999166762
  C         9.0878703303        4.9355123297       20.6854107116
  H         3.1473911010        5.8228589722       23.8715383953
  H         4.1475553273        7.1311451511       24.3416878513
  C         3.0939442008        6.0863608753       25.9372952206
  C         5.8351907534       -0.1828313396       28.8174436773
  C         5.3265786323        2.1144889443       29.6503758153
  C         8.9251925480        2.4430889153       20.5300104643
  C         9.2079394296        3.8513333211       19.8721586617
  S         9.3319593216        6.4661443763       19.8869655484
  H         2.1345882686        6.5892783486       25.7947701448
  H         3.7004352299        6.6805058614       26.6285605036
  C         2.6114515965        4.7509487700       26.4574987344
  N         6.2742377329       -1.1771143702       27.9687396053
  C         5.5196053131       -0.6915380453       30.0634307154
  C         5.0485847531        1.5867447818       30.9215668443
  H         5.4127645494        3.2002153307       29.5981728449
  C         7.6695307628        1.7162488542       19.9102717186
  C        10.2204402937        1.5113928040       20.5031695794
  C         9.5902426209        4.2088689332       18.6034146745
  C         9.6290353316        5.5926950067       18.4033068550
  H         2.1016529225        4.1078008129       25.7468024075
  H         3.4230862724        4.1710704972       26.8776089329
  C         1.7433364321        4.7993485137       27.7292916770
  S         6.2857224580       -2.5928239127       28.7343844501
  N         5.8271797948       -2.0281508242       30.1913781325
  C         5.0835816426        0.1075826736       31.1320137128
  H         4.8330679366        2.1496823570       31.7966963526
  H         7.2446192429        1.1009002441       20.6495288536
  H         8.1216949151        1.0686066249       19.2015256992
  C         6.5091870487        2.6414389974       19.4581326627
  H        10.4672532019        1.2899192735       19.4305732590
  H        10.0313521099        0.5392437030       20.9347326713
  C        11.4451993043        2.0621408062       21.2674710898
  H         9.7561783043        3.4433829748       17.8474302304
  C         9.9477999676        6.2965232915       17.1347798794
  H         1.3433457016        3.8478067148       27.6755107698
  H         0.9481268872        5.5131588116       27.6635964773
  C         2.5986419698        4.8640833110       28.9388241209
  C         4.9531832695       -0.5956576462       32.3538110079
  H         6.8373045941        3.3914325725       18.7583444539
  H         6.2337717484        3.2358392107       20.3356666473
  C         5.3708844687        1.7840049694       19.0046644425
  H        11.2798229961        1.9734016317       22.3266877091
  H        11.3799309422        3.1267664042       21.1947334666
  C        12.7869363599        1.4268712792       21.0003565080
  C        10.0852150797        7.7142391474       17.0092872386
  C        10.0712038889        5.5222331545       15.7935944086
  H         2.9558961494        3.8584045294       29.1153000071
  H         3.4606909223        5.5130846374       28.7293360080
  C         1.8881485123        5.3431847461       30.2088565499
  H         5.1189024705       -1.6415026712       32.2986046947
  C         4.6869071003       -0.1925014744       33.6609747244
  H         4.9492827490        1.3531754834       19.9014899688
  H         5.7541960661        1.0159559464       18.3263268928
  C         4.2965568942        2.5124046244       18.1504364945
  H        12.9094074056        0.5632986394       21.6047196948
  H        12.6955633197        0.9966295914       19.9781339014
  C        13.9605446665        2.4186271012       21.1803065984
  N         9.9813997232        8.6489768989       18.0157208523
  C        10.4397036347        8.3749054492       15.8094188938
  C        10.3719567887        6.2525302563       14.6530177325
  H        10.0478736988        4.4531501636       15.7462903209
  H         1.0215577098        6.0233851423       30.0121372985
  H         1.4620973434        4.4827018277       30.8101577116
  H         2.6606886954        5.7117166854       30.8748331694
  S         4.3493211891        1.3914882871       34.2113291024
  C         4.6370416162       -1.2445360081       34.7088976229
  H         4.3657986154        3.5791307252       18.2131688629
  H         4.4878851913        2.2866304870       17.1220405072
  C         2.8811521850        2.0965571483       18.5595298421
  H        13.7235901997        3.1679099280       20.3849299056
  H        14.9272814922        1.9782694312       20.8726242824
  C        14.1306127171        2.8678702595       22.5950979593
  S         9.7224417126       10.1011527498       17.3588179558
  N        10.4480544831        9.7800231447       15.9280691496
  C        10.5875576179        7.6560664792       14.5905668702
  H        10.5697055369        5.5872454666       13.7657157254
  C         4.1887294495        0.6643052728       35.8524724266
  N         4.2433238014       -0.6752451693       35.9062661426
  O         4.6746752414       -2.4330439334       34.3852291407
  H         2.2030788208        2.7915534246       18.0776490720
  H         2.7011218713        2.3117146944       19.6090415785
  C         2.5377741163        0.5638171389       18.3697817074
  H        14.8078807213        3.7013404311       22.4645096795
  H        13.1994048099        3.1381177227       23.1014420648
  C        14.7986605889        1.8310796538       23.4581194130
  C        10.8580612659        8.4409690038       13.4317128045
  S         3.7406741039        1.5605350177       37.3790935889
  C         4.2244537229       -1.4876196265       37.0720859793
  H         3.2470763681       -0.0177008983       18.9508223374
  H         1.4789549565        0.3907836306       18.6751870505
  C         2.5727356349        0.0706888350       16.9804684106
  H        14.9736953826        0.9386569175       22.8670229714
  H        14.1409063595        1.3786003228       24.1913691885
  C        16.1690894683        2.2639768027       24.0509670896
  H        10.6208470536        9.4350433848       13.6484464305
  C        11.3242327176        8.2289631597       12.1726451493
  H         3.4226394842       -1.1165176542       37.7026840705
  H         3.9990658620       -2.5117809932       36.8588573520
  C         5.6183715238       -1.3587865775       37.7138696763
  H         3.6190461963       -0.2269488626       16.6950584450
  H         2.2885946390        0.8074503144       16.2675717877
  C         1.7367153465       -1.1369835451       16.8949722430
  H        16.0523440367        3.2705745743       24.5149620355
  H        16.4549618298        1.6587631346       24.9003893531
  C        17.2139262668        2.2714870892       22.9850198352
  S        11.9962301747        6.7285707104       11.5936779140
  C        11.4956646842        9.4012315546       11.2401570750
  H         6.0155738429       -2.2940492669       38.0626448205
  H         6.3007717362       -1.1798760130       36.9102100194
  H         5.6257963750       -0.5598900685       38.3965470496
  H         1.7569698142       -1.6996891825       17.8200936264
  H         2.0308809956       -1.6892017387       16.0275916108
  H         0.6092182685       -0.8734554102       16.8226221447
  H        18.1757920566        2.4776196060       23.5329506022
  H        17.0528291417        3.0610162018       22.2674477450
  H        17.1738907693        1.3067216646       22.4864464488
  C        12.3930525034        7.6896117626       10.1550565402
  N        12.0376728027        9.0120470972       10.1089475870
  O        10.9115144277       10.4933988377       11.3965893183
  S        12.9081981326        6.9904506617        8.6637493166
  C        12.1261783762        9.9623326371        9.0417936954
  H        12.3655027368       10.9324240744        9.4786722946
  H        12.9732793035        9.6409026195        8.4536005502
  C        10.8311673239       10.0810296980        8.2500279864
  H         9.9597072793       10.5689716541        8.7423728387
  H        11.1609583445       10.7106432015        7.4886509361
  H        10.5473337699        9.1179834040        7.7437751901
  H        20.6567354031       11.1034032126        3.2552782011
  C        21.3674100762       10.2868628863        3.2996791737
  H        20.7134615291        9.4653915994        3.6075759012
  C        22.3643464925       10.6511124879        4.3998184329
  C        22.0042238572       10.1367762875        1.9684458033
  C        21.5696601948       10.8682059285        5.7328697378
  H        23.1003360206        9.8177865081        4.4230980546
  H        22.8927974982       11.5165140057        4.1789723616
  H        22.8158264664       10.8084875685        1.6438919218
  H        21.2598553458       10.3401341291        1.1748307087
  H        22.3971685431        9.1230191819        1.8374033685
  C        21.1747518741        9.5566085330        6.4302494547
  H        22.2811608026       11.3622598132        6.2695546252
  H        20.5997932077       11.4179231430        5.5152860144
  C        20.3651759925        9.8840350781        7.7653568418
  H        21.9787150426        8.8366803845        6.6134379801
  H        20.4578163883        9.0776430681        5.6706511956
  C        19.1454017331       10.8448483364        7.8508204282
  H        21.0024003896       10.5052543850        8.3377188148
  H        20.1321514891        8.9234588053        8.1558518826
  C        17.9479596458       10.0455900954        7.2068278860
  H        18.8729112166       11.0385804697        8.9311357463
  H        19.2670229474       11.9043483306        7.5135873333
  C        16.6193654152       10.8464837713        7.0494993911
  H        17.8439613119        9.1809716660        7.9228849904
  H        18.2353590343        9.6767940419        6.2644545416
  C        17.0694297490       12.2209389883        6.3957695557
  C        16.3871205802       11.5374434853        8.3523018870
  C        15.5066930286       10.1935776991        6.2243371524
  C        16.8400251349       13.3233669540        7.2337695265
  C        17.5374566500       12.5988123861        5.1414189012
  C        16.4590621765       12.8601153360        8.4790579456
  C        15.9376208739       10.8568974624        9.5055190467
  H        16.0125580747       10.2420859967        5.2499632728
  H        15.3535669186        9.1158794770        6.4617669486
  C        14.2216663845       11.1025189737        6.1437789103
  S        17.1405709895       14.7943726038        6.3316155320
  C        17.6682651326       13.9387729262        4.9572868946
  H        17.6180976639       11.8299997057        4.3683644067
  C        16.1438883770       13.4281907988        9.6614896858
  H        15.9660510653        9.7930212050        9.4705550783
  C        15.5886417198       11.4238393818       10.6527979851
  H        14.4824706089       12.0219321216        5.6835487623
  H        13.8647551793       11.2857037822        7.1866550366
  C        13.1043320046       10.4198815469        5.2817284620
  C        17.8753330211       14.6620887460        3.5861269354
  C        15.6492525011       12.7420736810       10.7944926535
  H        16.3649286108       14.5118267603        9.8159133494
  C        15.1515329414       11.0208620512       11.8864318916
  H        12.2460509013       11.1224010643        5.2597326918
  H        12.8123259931        9.4907454514        5.7583839706
  C        13.6455205161       10.2470857285        3.8975825329
  C        17.9304653639       16.0361274013        3.3496933686
  C        18.2917054692       13.7486182967        2.4706308318
  C        15.2238695558       13.4272238631       12.0653065094
  C        14.9448795303       12.0803740018       12.7325635285
  S        14.8162404862        9.4537185690       12.5947268690
  H        14.3576355256        9.4296092279        3.7972720773
  H        14.1690016736       11.1649003051        3.6022565284
  C        12.5272591958       10.1066392063        2.7895827807
  N        17.8035194731       17.0646025921        4.3379096742
  C        18.1797977011       16.5199189913        2.0826900406
  C        18.6379066267       14.2702056550        1.2157966602
  H        18.2684084361       12.6324480525        2.5237003049
  C        13.9284779656       14.2567566854       11.8682722518
  C        16.4076795968       14.2576723681       12.6562342117
  C        14.6349275384       11.5746373595       14.0101681492
  C        14.5328276303       10.1613943292       14.0782040808
  H        11.9389492367        9.1754039700        3.0716743870
  H        11.8668005935       10.9827568847        2.5993330430
  C        13.0259423086        9.6727306508        1.4057753238
  S        17.9231741930       18.4793705380        3.4970905951
  N        18.0551071440       17.9124078576        1.9931275722
  C        18.4782718266       15.7467106207        0.9509934560
  H        19.0623136179       13.5923024899        0.4755239794
  H        14.1171704852       15.1342569048       11.2699660761
  H        13.6269399412       14.6784323247       12.8141164945
  C        12.8563999640       13.5007520806       11.1041181206
  H        16.6801776414       15.2308488274       12.1112991281
  H        16.0291247408       14.5768544936       13.6541611966
  C        17.6538110923       13.5319017005       13.0403583718
  H        14.3986382437       12.2155889180       14.9015678548
  C        14.1014471210        9.3186532782       15.2391322960
  H        13.2280019777        8.5942753772        1.4520987957
  H        13.9729375788       10.2688917667        1.2292462474
  C        12.1101417469        9.9102636134        0.2392281992
  C        18.6465935514       16.3531183189       -0.3607226760
  H        13.2013038863       13.0889367181       10.2292813014
  H        12.5894851104       12.7393307694       11.7308449486
  C        11.6546928204       14.4189185006       10.9579681931
  H        18.0715506469       13.1574342931       12.1027656377
  H        17.4476468508       12.6823822722       13.6867730474
  C        18.7113797790       14.4701091921       13.6937832422
  C        13.9260450766        7.8996360566       15.3713937562
  C        13.7936507974       10.0745337312       16.5020513948
  H        11.8768209715        8.9234889787       -0.1079597926
  H        11.2636073685       10.4797089240        0.5846549000
  C        12.8616846097       10.5913689505       -0.9199645790
  H        18.5351230698       17.4202887810       -0.3674309461
  C        18.9092118206       15.7643420435       -1.5703748964
  H        11.7957829095       15.1383626302       10.1464470827
  H        11.5470832920       14.9681943355       11.9171349304
  C        10.3175581491       13.6150338652       10.7758836932
  H        18.7392141679       15.4571043839       13.2471102064
  H        18.4718364476       14.4925720760       14.7681421339
  C        20.0735572547       13.8506045523       13.5533320180
  N        14.1999507634        7.0294041572       14.2988853416
  C        13.6310052626        7.2731995611       16.5859539244
  C        13.6814333433        9.4579444199       17.7547993965
  H        13.9490681207       11.1601044497       16.6124077264
  H        13.1281529234       11.6369264959       -0.6879762887
  H        12.2233517861       10.7343011103       -1.7338527884
  H        13.6666841926       10.0704165135       -1.3181538597
  S        19.2113842142       14.1889280167       -2.0669522635
  C        18.9108950531       16.6835688070       -2.7615364968
  H        10.4732865310       12.6375736549       10.3029260881
  H         9.8112802485       13.4070729086       11.7857101038
  C         9.3950532303       14.3409647646        9.8090751349
  H        20.2956504897       13.5291093013       12.4828898136
  H        20.1607650911       12.9599047229       14.1468079692
  C        21.1579239069       14.8176986796       13.9385558359
  S        13.8337143055        5.5323486909       14.8438648881
  N        13.5926616771        5.8682331267       16.4375255644
  C        13.4959510448        7.9816496392       17.8030864904
  H        13.7113329043       10.0667412991       18.6478769939
  C        19.4105231504       14.7066057136       -3.7132795662
  N        19.2426486796       16.0383072542       -3.9255378996
  O        18.5920284817       17.8538023948       -2.7206093043
  H         8.7318416023       14.9270196973       10.4018945108
  H         9.8252914927       15.0180877336        9.0815840990
  C         8.5350819999       13.2327750424        9.0574385637
  H        22.1393953850       14.3802361771       13.7487343499
  H        21.1588760956       15.7152707764       13.2677032365
  C        20.9694819314       15.1178427833       15.4843075645
  C        13.1808143382        7.2491780069       19.0170988543
  S        19.9128729427       13.6914531110       -5.0534926897
  C        19.3343449398       16.6392290419       -5.2775706089
  H         9.0772829134       12.8057689580        8.2392069649
  H         8.2610903345       12.3308613777        9.6145876302
  C         7.2190775744       13.8857986574        8.6489975965
  H        21.9716168192       15.2469285666       15.8183907241
  H        20.4573081932       14.3249158267       16.0076666575
  C        20.3389416815       16.4703482885       15.7254946766
  H        13.2040030109        6.1704695948       18.9349614990
  C        12.5596436836        7.6001440422       20.2212777487
  H        20.0989901952       16.2097758480       -5.9064734473
  H        19.6724383952       17.6412751160       -5.2943549249
  C        18.0069863569       16.5169811212       -5.9983106366
  H         6.9535831440       13.2504359676        7.7766715910
  H         7.4300846964       14.8881246155        8.3120208850
  C         6.1567103094       14.0003593302        9.7277478912
  H        19.5348737769       16.6721378806       15.0186398371
  H        19.6838151076       16.4452562598       16.6518315661
  C        21.3418787094       17.6845114572       15.7897631444
  S        12.0265051976        9.1894764318       20.7689465179
  C        12.3151980143        6.5354401496       21.2483521383
  H        17.4327964552       15.6871572561       -5.5712828970
  H        18.0144973322       16.5589695646       -7.0564143629
  H        17.3572728222       17.3553265639       -5.7918866452
  H         6.2104964987       14.9519187145       10.2100213650
  H         5.1610450024       13.8698869103        9.3614647880
  H         6.3461891320       13.2334528485       10.4652313321
  H        22.1083542424       17.6313400919       16.5575659304
  H        21.7483876617       17.8805041555       14.8614500812
  H        20.7766624133       18.5434388550       16.2563057717
  C        11.7713907445        8.4002441394       22.3473867396
  N        11.7068018468        7.0345801545       22.3169487210
  O        12.6684127946        5.3766574668       21.0736048890
  S        11.4199868980        9.2667268777       23.8355310997
  C        11.5769713936        6.2679446238       23.5468323424
  H        11.2915723581        5.2941142872       23.3598530321
  H        10.8909170652        6.7156679736       24.2436516186
  C        12.9389202653        6.1519023326       24.2348901369
  H        13.2079271540        7.0901204797       24.7285742757
  H        13.7668966096        5.8210952097       23.5471996811
  H        12.8794685186        5.4366517325       25.0590910080
