352
 i =    12500, time =    12500.000, E =        25.5473387492
  H        12.7734520127        6.0704459872       32.1909419616
  C        12.3909865666        5.0492200645       32.1830847121
  H        13.1943235211        4.4252286499       31.8154370007
  C        11.2555047715        5.0238210697       31.2113162087
  C        11.9936373846        4.6567633631       33.6412901859
  C        11.7842835507        5.1142007705       29.8194255812
  H        10.7714779931        4.0100671529       31.3133620862
  H        10.5976965715        5.8407701329       31.4684754997
  H        12.6751353022        3.8543113499       33.9475154985
  H        12.1256451423        5.5195885988       34.2467356041
  H        10.9997720070        4.2155283923       33.6145562743
  C        10.5927636834        5.3560910264       28.8136659538
  H        12.1348852329        4.1636297002       29.5746682269
  H        12.5859890934        5.8351201979       29.7341299211
  C        10.9386589114        5.1028335855       27.2896919036
  H         9.7942590532        4.6728095953       29.0611980118
  H        10.2303664187        6.3421633243       28.9257691480
  C         9.8308239886        4.4172518069       26.6536308684
  H        11.7950896772        4.5014847144       27.2292366308
  H        11.1244464795        6.1140361362       26.8710716877
  C         8.7494708158        5.4249830428       26.3239063503
  H        10.3157533927        4.0644330220       25.6749174787
  H         9.5287349654        3.5221474867       27.1947965801
  C         7.4711914702        4.8742343879       25.5860245147
  H         8.2832998128        5.6930842925       27.2568261493
  H         9.0521941334        6.3864367868       25.8547509235
  C         7.0856554908        3.5312114228       26.2294766813
  C         7.8428585352        4.1835566108       24.3328229010
  C         6.1703472281        5.7771201172       25.5225669641
  C         7.2924166026        2.4522547981       25.3914010752
  C         6.4987696105        3.2201878503       27.4444828521
  C         7.8306760582        2.8278440129       24.2320145833
  C         8.3065776605        4.8605789446       23.2494790590
  H         6.3595070720        6.5896489447       24.8697201565
  H         5.9958584812        6.1704967016       26.5959403159
  C         4.9549168425        5.1201520110       24.8303266906
  S         6.8463296609        0.9682159133       26.1553653868
  C         6.4449082637        1.8605375072       27.6301651114
  H         6.2106126077        4.0436636829       28.1667326107
  C         8.1885355123        2.2298436704       23.0647565985
  H         8.4465729375        5.9572165219       23.3270803041
  C         8.6710080381        4.2500440623       22.0494805063
  H         5.1387298366        4.6178889500       23.8982563841
  H         4.4767120892        4.2870772545       25.3532447931
  C         3.6866606723        5.9710857233       24.6401272461
  C         6.0234585090        1.1994434727       28.8995592877
  C         8.6143715727        2.9097419760       21.9011442265
  H         8.0123857403        1.2225327526       23.0717318753
  C         9.0991720053        4.6388140640       20.7966929950
  H         3.0284199368        5.3685100125       24.0204276776
  H         3.9097743168        6.9259708268       24.2478981700
  C         2.7752861789        6.2384885374       25.8942854992
  C         6.1105213954       -0.1814979651       29.1705531639
  C         5.5733467437        2.0625746899       30.0409781836
  C         8.9766730800        2.1651508782       20.6832894265
  C         9.2776428068        3.5016099272       19.9784676691
  S         9.4405042778        6.1063036589       19.9658071348
  H         2.0536776771        6.9709528033       25.5782607575
  H         3.4027557678        6.7962007811       26.7010903617
  C         1.8780979455        5.0651956429       26.4888231207
  N         6.4047443753       -1.2021143379       28.1923797115
  C         5.8634618144       -0.6766781091       30.4559359864
  C         5.3932964958        1.5100288567       31.3067677339
  H         5.4852256743        3.1234809720       29.9239459224
  C         7.9084491597        1.3902046220       19.9271951479
  C        10.2938462684        1.2632972722       20.9450088835
  C         9.7459551172        3.9266060302       18.7398554147
  C         9.8635336717        5.2562722701       18.6171997091
  H         0.9973985589        4.9092781696       25.7438261660
  H         2.5401259838        4.1356507237       26.5515280334
  C         1.1856798211        5.4780408245       27.8801737599
  S         6.4198894061       -2.5958434624       28.9424056210
  N         5.8902557577       -2.0760790227       30.4079725934
  C         5.4162114301        0.0708793781       31.5762112654
  H         5.1837971249        2.1686548334       32.0887369933
  H         7.6807940914        0.5936225970       20.6381531449
  H         8.4235211817        1.0073518993       19.0458947687
  C         6.6402478696        2.0375568791       19.5582636430
  H        10.3423398677        0.4592193336       20.2722918668
  H        10.1954797672        0.7990665814       21.8993324761
  C        11.5746637121        2.1026043819       20.9567732863
  H        10.0399446045        3.1532269645       18.0056834164
  C        10.2939425168        6.0114715264       17.3648328637
  H         0.4157944153        4.7188090882       28.0753421825
  H         0.8102711987        6.4728034066       27.7533180355
  C         2.2157392720        5.5404860645       29.0728843081
  C         5.1391042066       -0.5256573484       32.8289666703
  H         6.9476389550        2.7737737945       18.7694242270
  H         6.2574493408        2.6581236283       20.3789190585
  C         5.6718356169        1.1175011199       18.8096967610
  H        11.3649434046        2.8379608787       21.6332116114
  H        11.6611814326        2.7070054411       20.0495483086
  C        12.7363241581        1.2272758350       21.3750790898
  C        10.4189176851        7.4231472827       17.2674949684
  C        10.6425852135        5.3403863750       16.1287598520
  H         3.0741765890        4.7664491715       28.9887973029
  H         2.6934039757        6.5335253490       29.0166435135
  C         1.6849905017        5.5304762094       30.4542807597
  H         5.1847067196       -1.6503970258       32.8030581697
  C         4.8560306395       -0.0138042643       34.1004627797
  H         5.0882397224        0.5841646928       19.4924110438
  H         6.1907012261        0.4028985934       18.0755077829
  C         4.7017187232        1.9293437344       17.9879088687
  H        12.6910360687        0.9983730880       22.3950289243
  H        12.6699577633        0.3271087997       20.8046708831
  C        14.1140177281        1.7660106835       21.0546969806
  N        10.0948632404        8.3351424878       18.3078151888
  C        10.7229053982        8.1035562341       16.0951072717
  C        10.9553335393        6.0169017291       14.9664997576
  H        10.7234502821        4.2342405330       15.9963726238
  H         1.4124488325        6.5273602494       30.7426972618
  H         0.9993078129        4.7533576656       30.7682845407
  H         2.4948113590        5.4467099582       31.1781175044
  S         4.6612486930        1.6252076688       34.5797317035
  C         4.6381316449       -0.9834933765       35.1906287198
  H         4.7245765996        2.8722991550       18.4468709042
  H         5.0424919945        2.1793334108       17.0505835186
  C         3.2954695882        1.4331537773       17.6917576919
  H        13.9672909502        2.5454246170       20.3252412944
  H        14.6724992310        1.0123910100       20.5316311711
  C        14.7316491339        2.2800561965       22.3971771844
  S        10.0722963734        9.8379743262       17.7517947317
  N        10.6734692189        9.5272234837       16.2527372014
  C        10.9429570823        7.4931719071       14.8792959190
  H        11.1816052433        5.4291434635       14.0587467472
  C         4.3188773109        0.9883116730       36.2255698626
  N         4.3895539036       -0.3700320972       36.3133435952
  O         4.9471753069       -2.1496460560       35.1072911110
  H         2.7945001329        2.2391823959       17.1202124069
  H         2.7889377363        1.2069894152       18.6781839852
  C         3.3140806044        0.2044664643       16.7707702257
  H        15.2523243230        3.1851202824       22.2167522573
  H        13.9440372131        2.4764859971       23.0783989055
  C        15.5246391153        1.1968236931       23.0652286532
  C        11.0870578911        8.2994590439       13.7362750132
  S         3.7338624708        1.8679944127       37.5907844683
  C         4.3080523668       -1.1474141920       37.5836289295
  H         2.6291788358        0.4382256155       16.0110125070
  H         4.3148672447        0.1423409255       16.3658707745
  C         2.9270915544       -1.1308247753       17.5095192084
  H        15.7880193335        0.4093781546       22.3020948755
  H        14.9871834558        0.6956134909       23.9378842979
  C        16.8490954915        1.7878143442       23.6051483458
  H        10.7756026748        9.3593219129       13.8488482638
  C        11.5535999069        8.0447049449       12.4305673552
  H         3.6518678869       -0.6452570071       38.3384536679
  H         3.8975383124       -2.1609432443       37.4314476535
  C         5.7304212716       -1.3307507927       38.0757166915
  H         3.1826180769       -1.0821645949       18.6158513201
  H         3.4962576248       -1.9910707722       17.1654889435
  C         1.4334190116       -1.4572643354       17.5413887660
  H        16.7751081754        2.7265503958       24.0751440766
  H        17.3157332244        1.0782948671       24.3635162653
  C        17.9322369522        2.0237090325       22.5745883156
  S        12.1489954267        6.5669982265       11.8023260138
  C        11.4075912334        9.1081932362       11.3600817739
  H         5.8290761226       -2.3912195444       38.1345939813
  H         6.4876453312       -1.0525994295       37.3555504208
  H         5.8592156069       -0.6970302119       39.0048006053
  H         1.3317219766       -2.3588986740       18.1672367104
  H         1.0701716550       -1.6106569897       16.5319801053
  H         0.8679408406       -0.6007110306       17.9247523774
  H        17.6341501304        2.9552851225       21.9588619811
  H        18.1764640853        1.1295265457       21.9670570720
  H        18.8704693885        2.2676353940       23.0713503612
  C        12.2350132308        7.3576434073       10.2166231257
  N        11.9331333509        8.6553597284       10.1977374756
  O        11.0796610947       10.2458727468       11.6343400235
  S        12.8780556129        6.5786669539        8.7919758715
  C        12.1218327554        9.5254734662        9.0288174303
  H        12.4523938080       10.4833329125        9.3512255764
  H        12.8977126999        9.0756389773        8.4064764229
  C        10.8158088517        9.6742630038        8.2159347374
  H        10.8308478475       10.3986749139        7.3801982418
  H        10.6363057781        8.6987298240        7.7864280866
  H         9.9981702045        9.9027326595        8.8156563610
  H        21.0573117077       11.2088538115        4.0753238880
  C        21.4751236194       10.2476526142        4.2793171020
  H        20.6265078595        9.7409624534        4.7014663873
  C        22.5810302940       10.4376378348        5.3367631964
  C        21.8444630899        9.7845045894        2.8812793096
  C        22.1172844908       10.7097486815        6.7527016142
  H        23.1513222039        9.4790641169        5.4258860496
  H        23.2931138953       11.1959463812        5.1002058536
  H        22.3118152350       10.5816956081        2.2676552531
  H        20.9930861208        9.3800336159        2.4169343806
  H        22.5675710473        8.9545172535        2.9630607206
  C        21.2612269974        9.5594481416        7.3811296661
  H        22.9896192783       10.9150058891        7.4030943673
  H        21.5921701282       11.6344211505        6.8321569266
  C        20.3004859248       10.0384278660        8.4760768488
  H        22.0093335736        8.8736398665        7.7871316101
  H        20.6775882988        8.8868715724        6.7326234890
  C        19.1449358673       10.8633648667        8.0182904792
  H        20.9383048253       10.5419714104        9.2132221413
  H        20.0000515673        9.1529657019        9.0536264011
  C        18.0189266118       10.0782187593        7.3860762293
  H        18.7012827887       11.3208929718        8.9639696795
  H        19.3737887665       11.6583612409        7.2490087742
  C        16.7211024149       10.8745460630        7.1196911561
  H        17.7269264817        9.1967590673        7.9958882727
  H        18.3542872273        9.8214142483        6.3621570327
  C        16.9983658068       12.2591379965        6.5058493059
  C        16.2173351814       11.5865831844        8.4333523943
  C        15.6256142472       10.0693471005        6.3893678948
  C        16.7705481728       13.3274761163        7.3990464497
  C        17.5919073191       12.7538776281        5.3025983748
  C        16.2267841732       12.9074890641        8.6215612358
  C        15.7141178520       10.7923819535        9.4726388996
  H        16.0783348518        9.5432493996        5.5652797587
  H        15.2529134451        9.2748258816        6.9351308732
  C        14.3699782599       10.9657405431        5.9430623468
  S        17.0531875495       14.8890141661        6.6598986219
  C        17.6571551336       14.0961285091        5.2367892540
  H        17.9034366204       12.0649450783        4.6165689866
  C        15.7726322890       13.3820789596        9.7806354649
  H        15.6240680928        9.6936060532        9.3329998292
  C        15.2890209598       11.2862708758       10.6243047036
  H        14.5668410174       11.9308096514        5.5306386521
  H        13.8173200395       11.2613056355        6.8774617811
  C        13.4641435267       10.1969407085        4.9304033124
  C        18.0539016461       14.8228386744        3.9729962352
  C        15.2984544071       12.6324208682       10.8565872572
  H        15.8757428963       14.4062345492        9.8950641018
  C        14.9048233518       10.7537716229       11.7974887078
  H        12.4906017756       10.7159169877        4.8961119256
  H        13.3446435901        9.1325079999        5.2932564155
  C        14.0028721418       10.2337365329        3.5561554585
  C        18.0659587826       16.2234226316        3.7972535759
  C        18.4984757410       14.0789857600        2.7942234537
  C        14.9058998890       13.1989276393       12.1485012255
  C        14.7385158902       11.8033805944       12.7577768668
  S        14.8058604189        9.1731898243       12.6107425054
  H        14.8640217271        9.5728459790        3.5837623465
  H        14.2739743685       11.2270674336        3.3136261215
  C        13.0474530999        9.8198970216        2.4939065812
  N        17.7676216453       17.1792400560        4.8144309058
  C        18.1975925605       16.8629940598        2.5511520350
  C        18.7793913546       14.6833527112        1.5906951637
  H        18.7177075935       13.0150053721        2.9188196310
  C        13.5889316387       14.0256860092       12.2222550851
  C        16.0299870933       13.9448270517       12.8973782175
  C        14.4280620846       11.2708315502       14.0414885764
  C        14.4606276598        9.9449216453       14.1594881432
  H        12.6345453446        8.7811393354        2.6822636074
  H        12.1593725138       10.4364155983        2.5198265580
  C        13.6162953369        9.9680176966        1.0904720357
  S        17.5736436231       18.6359852495        4.1930016756
  N        18.1126115588       18.2917560517        2.6819379530
  C        18.5529333797       16.1388990590        1.3799761407
  H        19.1765245877       13.9796757338        0.8278492759
  H        13.7563299113       14.9741641441       11.7350929177
  H        13.3265422507       14.3534129196       13.2306703757
  C        12.3310785317       13.3117076969       11.7037577055
  H        16.2207481690       14.7546130373       12.1794248176
  H        15.6229279179       14.4323416474       13.7948752283
  C        17.2374584963       13.1204900798       13.3329919635
  H        14.1453217785       12.0708403170       14.7681687093
  C        14.1829721074        9.1251057596       15.3904166727
  H        14.4059582806        9.2320526335        0.9519832600
  H        14.1525658431       10.9181012954        0.9875690221
  C        12.5539044332        9.5836831876       -0.0093662273
  C        18.6450642255       16.8191844774        0.1288898200
  H        12.4094703828       13.1275354313       10.5902431901
  H        12.1738863354       12.3433556638       12.1913798058
  C        11.1570479017       14.2868818793       11.8357061621
  H        17.6575744418       12.4931372666       12.5480601228
  H        17.0142412928       12.5033474428       14.1840748866
  C        18.2109927642       14.1215949220       13.9349553544
  C        14.1597314594        7.7217511310       15.5325789948
  C        13.8105386868        9.8394572618       16.6261542642
  H        12.2143824196        8.6175440195        0.3543750968
  H        11.6356568181       10.1844096405       -0.0621029329
  C        13.1226178589        9.8660020038       -1.3458880554
  H        18.4756413990       17.8779941804        0.2072566225
  C        19.0665391566       16.4186888560       -1.1147045770
  H        11.3112990917       15.0201433863       11.0699632702
  H        11.1736968916       14.8081726209       12.7623463929
  C         9.7705736078       13.7392253745       11.5731205689
  H        18.5064539008       14.8239644313       13.1497259574
  H        17.6716923685       14.6170045275       14.7210778943
  C        19.3844914469       13.4148586517       14.7459936156
  N        14.4423077207        6.8161006002       14.4983001412
  C        13.8290632588        7.0578864713       16.7054442288
  C        13.4412313525        9.2159766780       17.8295833624
  H        13.7449371849       10.9140603505       16.6212333539
  H        12.4122868098        9.7226769761       -2.1943441306
  H        14.0817991006        9.3529879976       -1.4965567401
  H        13.3132430585       10.9408589162       -1.3495587052
  S        19.4157657352       14.7698054497       -1.6650663151
  C        18.9487997796       17.3641119729       -2.2220339713
  H         9.7169573934       12.7527777979       11.9515805716
  H         8.9424916591       14.3386094520       11.9532126189
  C         9.4827890023       13.5153385268       10.1128010440
  H        19.4194015514       12.3843970206       14.5441979724
  H        19.3533065638       13.4797372333       15.8465703905
  C        20.7165074376       14.0259900473       14.3635467522
  S        14.4169781269        5.3484675628       15.0661931225
  N        13.9243737863        5.6593160973       16.6065226137
  C        13.4588040047        7.7253631051       17.9155615870
  H        13.2941712744        9.8976593174       18.6244720022
  C        19.5076678275       15.4646923722       -3.2695504880
  N        19.3000481072       16.7817478292       -3.3694322727
  O        18.6523171406       18.5820768670       -2.1204555689
  H         9.5619436948       14.4305758480        9.5585162526
  H        10.2525006528       12.9146192726        9.6671424177
  C         8.0448895415       12.8876914443        9.8162821290
  H        21.5006260834       13.6718381257       15.0761605977
  H        21.1515422919       13.7291080428       13.4036377274
  C        20.7773078941       15.5513770422       14.6335338560
  C        13.2509803269        6.9014235718       19.0823910378
  S        19.8960498199       14.6287325804       -4.7898055939
  C        19.4218105745       17.5766280866       -4.5759504332
  H         7.9434732997       12.8182873202        8.6964235940
  H         7.8772845116       11.8898512086       10.1047681184
  C         7.0236770451       13.8095698193       10.4178836370
  H        20.0333697409       15.8051263589       15.4469234954
  H        20.3426757092       16.0747854726       13.8311476200
  C        22.2539759688       16.1080552184       14.9075847567
  H        13.6930312199        5.9096366098       18.9760304149
  C        12.8646912387        7.2958054412       20.3496765012
  H        20.2719350266       17.3055646594       -5.2254727929
  H        19.6650760396       18.6105458321       -4.3370992127
  C        18.0624318711       17.6277412741       -5.3176269737
  H         7.4162507534       14.8524518331       10.3271157093
  H         6.8164755860       13.5707299551       11.4531248937
  C         5.7336223978       13.8969972067        9.6626565385
  H        22.7485625648       15.6484137217       15.7917560924
  H        22.8724394811       15.6706639624       14.0402032055
  C        22.3028266392       17.6220750866       15.0065785999
  S        12.1969054660        8.7504433040       20.9112967720
  C        12.9091599649        6.2307423750       21.3550027783
  H        17.9089572918       18.6418242571       -5.7055635425
  H        17.2444289335       17.4086002162       -4.6266336169
  H        17.8743116794       16.8978051445       -6.0580852695
  H         5.7595563213       14.4761424447        8.7365285239
  H         5.5285796622       12.9081375839        9.4406024531
  H         4.9006364171       14.2065106718       10.3011922759
  H        21.5854240162       17.9112640823       15.7545015200
  H        23.2686054313       17.9799253059       15.3308661403
  H        22.1910404350       17.9522250992       13.9808492881
  C        11.9643554659        7.9402141286       22.5046566085
  N        12.2877112892        6.6113563751       22.4891939107
  O        13.5643784973        5.1774238225       21.1950687773
  S        11.0085234227        8.5901634289       23.8339648077
  C        12.2197253894        5.7832441896       23.6937569308
  H        12.2830220613        4.7197582610       23.5036998327
  H        11.2699184060        5.9718573225       24.1287951053
  C        13.2806951990        6.2168751323       24.6795642010
  H        13.5646959403        5.3119143235       25.2701581985
  H        12.9234979961        6.9152040279       25.3408495147
  H        14.1838741100        6.5294475190       24.1650264133
