352
 i =    43200, time =    43200.000, E =        25.1190421585
  H        11.6972184025        6.8423643796       32.0379318173
  C        11.1438293793        5.9759574770       32.0180008478
  H        11.8360294562        5.1736159032       31.6225712228
  C         9.9135228126        6.2815421927       31.1993925963
  C        10.7810726446        5.3134822178       33.3163230167
  C        10.2160391865        6.6230625458       29.8143963129
  H         9.2787861705        5.4326673090       31.1362191086
  H         9.4280976999        7.1137253288       31.6833007804
  H        11.7040780400        5.3845700021       33.9250364885
  H         9.8715311950        5.7462660147       33.7784581516
  H        10.6482691124        4.2470677516       33.2065290540
  C        10.3198080272        5.3794327592       29.0806681454
  H        11.1862788904        7.0770934798       29.7139503357
  H         9.4564608561        7.3178732698       29.2771330752
  C        10.7159347708        5.4766284455       27.5983518169
  H        11.0289675342        4.6647184455       29.5295752220
  H         9.4325665520        4.8385261838       29.0825012300
  C         9.7222424822        4.7043172613       26.6365286983
  H        11.6989574785        5.1346956717       27.3511662242
  H        10.7537348374        6.5642946172       27.3717614101
  C         8.6018275244        5.5778129085       26.0553742547
  H        10.3648693717        4.3535216870       25.7561445934
  H         9.4521251227        3.8598821203       27.1049867893
  C         7.4180312949        4.8992665224       25.3248162916
  H         8.2265188625        6.0492664921       26.9358547696
  H         8.9763181773        6.4195546005       25.4034909778
  C         7.0140085807        3.5771109160       25.8755838371
  C         7.9656335747        4.2221003304       24.1068988648
  C         6.1161846635        5.9123814639       25.0651651564
  C         7.4827212843        2.4877745080       25.1193015937
  C         6.4496279759        3.1836174781       27.1062408207
  C         8.0971029269        2.9018682113       24.0265986123
  C         8.4294561847        4.9703468504       23.0442118363
  H         6.4018477934        6.5695665529       24.2335526821
  H         6.0170361334        6.4685546344       25.9562287736
  C         4.8489770477        5.1269491220       24.5820966597
  S         7.0876030958        0.9547485653       25.8585540561
  C         6.5562418372        1.8376603461       27.2710495328
  H         6.3089609683        3.9248919875       27.8684901192
  C         8.6111712281        2.2919541058       22.8831472346
  H         8.3276513761        6.0696842646       23.0824562992
  C         8.8311240604        4.4138693959       21.8672519187
  H         5.1484738616        4.6248646305       23.6360825273
  H         4.6223953448        4.2002251823       25.1868424393
  C         3.6002126141        5.9523386441       24.3257102718
  C         6.0836052506        1.1522747727       28.5234589076
  C         8.9484215739        3.0724449019       21.7602902201
  H         8.7556530810        1.2944496864       22.7793543259
  C         9.2246223872        4.8480185276       20.6270488751
  H         2.8464394233        5.3725040488       23.8065983671
  H         3.9514872226        6.8585944597       23.7513350361
  C         2.9601196423        6.3439551658       25.5782183530
  C         6.1611297788       -0.2360317528       28.8048758557
  C         5.5574742633        2.0252796843       29.6491426520
  C         9.5167868043        2.3759744150       20.5806435928
  C         9.4975893983        3.7298036757       19.8242288197
  S         9.3883070084        6.3273175599       19.7237610043
  H         2.5287512884        7.3124482991       25.3119694392
  H         3.7904651826        6.6263300396       26.2633963930
  C         2.1032175290        5.1623176841       26.1684127737
  N         6.6530120465       -1.1460866483       27.9074744413
  C         5.7960689470       -0.7511445896       30.0901896034
  C         5.1569598010        1.4906768368       30.8469283645
  H         5.3045542350        3.0687548863       29.4514058209
  C         8.5367502895        1.3353256032       19.9339680107
  C        11.0171794083        1.8359186196       20.6839935903
  C         9.8054511494        4.0824605350       18.5247490532
  C         9.8299625931        5.4335024415       18.2949934290
  H         1.4514814471        4.8738717636       25.4083111480
  H         2.6679780880        4.3691774613       26.4615476722
  C         1.1962861349        5.7413453897       27.3259800747
  S         6.5991164897       -2.6087849972       28.6763416585
  N         6.0025103159       -2.1557563436       30.1305397230
  C         5.3390036017        0.0325747994       31.1374905882
  H         4.7605255855        2.1159764483       31.6037202232
  H         8.5761450491        0.5043155121       20.5857629256
  H         8.9372734490        0.9499623211       19.0316365243
  C         7.0920892562        1.7476367992       19.5597441229
  H        11.2394456126        1.4052741311       19.6949077715
  H        11.1080361800        0.9518568592       21.2839425702
  C        12.1247573916        2.8343851440       21.0468885439
  H        10.0491824545        3.3154849078       17.8311302863
  C        10.1366086138        6.1153106566       16.9717784154
  H         0.4067508585        4.9821033494       27.3497195024
  H         0.8258872028        6.6705401520       26.9758736990
  C         1.9994306881        5.7428548996       28.5929666679
  C         4.9619069094       -0.6040734064       32.3736855564
  H         7.0732763082        2.8216020840       19.5635135597
  H         6.3451907645        1.4292331960       20.3292481281
  C         6.7965543255        1.2386446785       18.1678928834
  H        11.8248752464        3.4662744811       21.9889211054
  H        12.3551097842        3.5795491631       20.2320380474
  C        13.4422700577        2.0948076661       21.1677532270
  C        10.1550046780        7.5194324118       16.8190839866
  C        10.4374560334        5.3666629171       15.7515597478
  H         2.6801478042        4.9255486085       28.7524858500
  H         2.6299684627        6.6099264161       28.5914211690
  C         1.2433293875        5.6263949202       29.8617449016
  H         5.0613088037       -1.6840853668       32.2694762211
  C         4.6615598762       -0.0522141899       33.6205031733
  H         6.8401458336        0.2045672038       17.9560109948
  H         7.4816056870        1.7848704257       17.4629653179
  C         5.3666724162        1.6072463751       17.6867937905
  H        13.4942244173        1.3125625898       21.9411796698
  H        13.6863455065        1.6316479411       20.1786138443
  C        14.6217456610        3.0039896858       21.3962835375
  N        10.0282961316        8.4690855936       17.8281062370
  C        10.5818420932        8.1533564559       15.6346816429
  C        10.7073787780        6.0049735904       14.5389504384
  H        10.4955104085        4.2812564460       15.8718498693
  H         0.7001164756        4.6658446741       29.7946789820
  H         1.9077466733        5.6497418121       30.7249726175
  H         0.4106165562        6.3622765429       29.9198932331
  S         4.4560058459        1.5558233939       34.0096840597
  C         4.4863535623       -0.9621297536       34.7227761916
  H         5.0615155227        2.4952369399       18.1108298248
  H         5.3672771317        1.7389655834       16.5921691016
  C         4.2695233673        0.6515670735       18.1145295241
  H        14.3172664211        4.0004948510       21.3212170096
  H        15.4190215978        2.9309009623       20.6160170133
  C        15.0289759528        3.0771564663       22.8857461519
  S        10.2113375848       10.0095876180       17.2343498082
  N        10.7248290768        9.5768752307       15.7410494567
  C        10.7836885406        7.5097893286       14.4357778601
  H        10.8803584582        5.3982612354       13.6524481592
  C         4.1473908595        1.0581448730       35.6381703537
  N         4.0574595943       -0.2823471673       35.7616115848
  O         4.6562816056       -2.1655608734       34.6473729321
  H         3.2899382053        1.1199094164       18.2723922988
  H         4.5579270510        0.1475631584       19.0327106736
  C         4.0929959976       -0.2732214602       16.8831433672
  H        15.8033984939        3.8803517298       23.0450144361
  H        14.1433379677        3.4364861042       23.4768594626
  C        15.6105943681        1.7585702976       23.3606971244
  C        11.0767551112        8.3040509708       13.2635093471
  S         3.5452846406        2.1034454806       37.0274492452
  C         3.8603208570       -0.9778180668       37.0553265749
  H         3.6286767097        0.1802085565       16.0256909225
  H         5.0669988969       -0.6087298370       16.5699202499
  C         3.2489015577       -1.4357858200       17.3875990512
  H        15.6339185131        0.9875342336       22.6088842714
  H        15.1355175920        1.3237550667       24.1578740295
  C        17.0581567765        1.9660522244       23.8222528216
  H        10.9972466672        9.3906906225       13.3572323091
  C        11.5044217303        7.9659271356       11.9777353502
  H         3.1493467424       -0.4717920892       37.7004461033
  H         3.4449504939       -1.9721041577       36.9613325161
  C         5.1118143847       -1.0295357896       37.9178883911
  H         3.1757519280       -1.3638235729       18.4421100691
  H         3.8415237743       -2.2792041400       17.0544855874
  C         1.8358122926       -1.4431388013       16.8033733027
  H        17.0888757730        2.7784160652       24.4870137924
  H        17.4765366897        1.0238911471       24.2038988299
  C        17.9816979898        2.0966048599       22.6998316953
  S        12.0231033356        6.4166569216       11.3359278639
  C        11.6553266251        9.1451801391       10.9920409805
  H         5.1697596534       -0.2119799925       38.6511645013
  H         5.0775222943       -1.8931571734       38.5747576585
  H         6.0813125125       -1.2020196307       37.3766652885
  H         1.4846566075       -2.4774533093       17.0369614921
  H         1.8182874698       -1.1146445729       15.7468251860
  H         1.3129464053       -0.7510586359       17.5221120854
  H        19.0096288338        1.8668508671       23.0052994301
  H        17.9341045811        3.1158806100       22.2450351058
  H        17.7796186457        1.4117902489       21.9109570056
  C        12.2345663656        7.2516199985        9.7339513477
  N        12.0777362400        8.5917005358        9.8423238399
  O        11.3562553065       10.3152804214       11.2362975585
  S        12.6472282846        6.3853143332        8.1884929729
  C        12.2895271376        9.4332131101        8.6626151137
  H        12.6518600287       10.3230808184        8.9452819601
  H        13.0743439463        9.0245898247        7.9516162576
  C        10.8801552665        9.7799541234        8.0120022110
  H        11.0782222239       10.7654880714        7.6260851949
  H        10.6386972381        9.0942255559        7.2300622594
  H        10.0693619548        9.8783994187        8.7131873377
  H        20.6177304177       11.1080667900        3.5691402148
  C        21.3212542832       10.1990145369        3.4918457112
  H        20.7348912991        9.2670569288        3.6190900786
  C        22.2982445355       10.2962224009        4.6371551658
  C        21.9812639880       10.1966427709        2.1172285196
  C        21.7353347524       10.5612255540        6.0115501576
  H        22.9139086576        9.4279394079        4.7058279512
  H        23.0170651138       11.1182423931        4.4750533652
  H        21.8332793190        9.1848762398        1.6279498155
  H        23.0172019922       10.2165697382        2.4657733725
  H        21.6473646625       10.9981914214        1.4728770507
  C        20.8502654777        9.4320105929        6.5122970096
  H        22.5944417662       10.5896310309        6.6364388244
  H        21.4194891939       11.5873302186        6.1305325394
  C        20.0792084147        9.8490463324        7.7979979502
  H        21.3843288159        8.5401136792        6.8878540633
  H        20.2047988326        9.0957274307        5.7566649133
  C        18.8977596961       10.7247796370        7.4326733162
  H        20.7133025806       10.4679006402        8.4870975589
  H        19.5689288342        9.0456473006        8.3343744211
  C        17.7772388223        9.9053552740        6.8534284425
  H        18.5922797215       11.2449509327        8.3172022465
  H        19.2034171928       11.3804194754        6.6187638164
  C        16.4847902247       10.7365562699        6.7116540319
  H        17.5038690308        9.0679452749        7.5311097305
  H        18.1490897261        9.6969537037        5.8635499396
  C        16.7979887561       12.0763116469        5.9738279925
  C        16.0978265190       11.5686346782        7.9217165536
  C        15.3392022383        9.9386026979        6.1067415250
  C        16.5570526775       13.2421533918        6.7028552573
  C        17.3009697778       12.3785259076        4.7003444739
  C        16.1337440126       12.8999779141        7.9498606414
  C        15.6589281406       10.9424151800        9.0616418554
  H        15.7040945737        9.4378624010        5.2261749357
  H        15.1484794184        9.0128730889        6.6852028398
  C        14.0145818035       10.8392484641        5.9496792309
  S        16.9552864987       14.6853898779        5.7973996969
  C        17.4508664283       13.7180206863        4.4784125263
  H        17.6286984895       11.5704311336        4.0602742790
  C        15.6722037931       13.4996939335        9.0667008433
  H        15.7487975137        9.8838869236        9.1042898451
  C        15.2466516181       11.5421732053       10.1570692265
  H        14.3710848050       11.7693870322        5.5538582784
  H        13.7196738695       11.1423447993        6.9475727761
  C        12.8515323029       10.2636579383        5.1423357603
  C        18.0579574966       14.3513250800        3.2457338258
  C        15.2872549517       12.8753958123       10.2362919540
  H        15.5366105502       14.5813350939        9.0506546689
  C        14.8439613244       11.1634011931       11.4052633626
  H        12.0166565418       10.9738677677        5.2943982548
  H        12.5478360706        9.3111903542        5.6583513118
  C        13.2470629885       10.1105624416        3.6214131589
  C        18.0647003576       15.7143700966        2.9473405906
  C        18.5484466473       13.4081175523        2.1601852211
  C        15.0151437645       13.6189764711       11.4742825586
  C        14.7274105755       12.2662036391       12.1500187037
  S        14.5904035170        9.6482439338       12.1833305639
  H        14.1095457083        9.4200622113        3.5212905727
  H        13.5892841124       11.1255980243        3.3290034256
  C        12.1029837900        9.8786568316        2.6782026800
  N        17.6949214560       16.7425874953        3.8454344759
  C        18.3892014976       16.1936088162        1.6766238849
  C        18.8022395408       13.8924027306        0.8311298887
  H        18.6626218256       12.2796996465        2.2424534752
  C        13.6129116967       14.4028525982       11.3242443643
  C        16.1890021840       14.5504169071       12.1087802736
  C        14.3867034929       11.8604230721       13.4593403281
  C        14.2402517141       10.5189939357       13.6695163404
  H        11.3435300407        9.2612410700        3.1403949426
  H        11.6153942542       10.8396305530        2.4248409024
  C        12.5503012798        9.0976184337        1.4848405774
  S        17.8285985778       18.1864499410        3.0581087774
  N        18.3738522767       17.5972057626        1.6244263419
  C        18.7344696794       15.3722685420        0.5300143974
  H        19.2720068774       13.2393906696        0.1105311168
  H        13.7464861541       15.2074144595       10.5535001956
  H        13.5147970335       14.9196601811       12.2551606917
  C        12.4519058313       13.5130373569       10.9969176576
  H        16.5798933407       15.1438195193       11.2879529596
  H        15.6682897390       15.1470955158       12.8215565241
  C        17.3567612048       13.7181800898       12.7097613036
  H        14.2096145946       12.5318631147       14.2791983084
  C        13.9866818740        9.8438122471       14.9637191550
  H        11.6104284162        8.8963414548        0.9728459219
  H        13.0687932993        8.1375454327        1.7500554444
  C        13.4666451860        9.8641190117        0.5545893802
  C        18.8260559322       16.0981591293       -0.7096806330
  H        12.7668530207       12.9190715863       10.1542542865
  H        12.2813306502       12.7795438720       11.7843488806
  C        11.1945251036       14.2791280233       10.4689939841
  H        17.7626264454       12.9703410228       12.0344339709
  H        17.0563866246       13.2287489021       13.6442342600
  C        18.5551664458       14.5578286995       13.2303172449
  C        14.0787291648        8.4310933952       15.1187159961
  C        13.9080825905       10.6594474625       16.2539289346
  H        13.7996592013       10.7959381637        1.0808522392
  H        14.3375314487        9.3746112184        0.2758940889
  C        12.7375802503       10.1280384280       -0.7159597042
  H        18.6191215458       17.2035667657       -0.7046240243
  C        19.1857515471       15.5611697117       -1.9402612720
  H        11.5297683838       15.0693499515        9.7733685900
  H        10.8026986885       14.6828860292       11.3885993116
  C        10.1974962171       13.2903547595        9.8947895780
  H        19.1221996332       14.9221290528       12.4129350277
  H        18.0353933979       15.4655022961       13.6096424563
  C        19.4056292047       13.7992587507       14.2523296714
  N        14.2217315056        7.3880034612       14.1988125609
  C        13.9138072297        7.8846660464       16.4202664973
  C        13.6817748701       10.0726789513       17.4604887160
  H        13.9778791569       11.7526890669       16.1812567887
  H        13.5220349298       10.4641381443       -1.4299514173
  H        11.8568170873       10.8397802372       -0.6544616959
  H        12.2334595379        9.2397284495       -1.1478850195
  S        19.6068256446       13.9153795673       -2.3464049214
  C        19.2196458172       16.5444453895       -3.0166600788
  H        10.5973548756       12.7228354203        9.0771723944
  H         9.8811006343       12.5324575540       10.6715981940
  C         9.0077316091       14.0521023898        9.4223925991
  H        19.1710370063       12.7477153106       14.2245069997
  H        19.0553994766       14.2015275734       15.2453936106
  C        20.8916313786       14.0935760437       13.9656078561
  S        14.3350663057        5.9656756523       14.9812482265
  N        14.0437614808        6.4593140560       16.4699264663
  C        13.7621596868        8.6214088748       17.5878216905
  H        13.7351385933       10.7738535523       18.2751717502
  C        19.7183514769       14.5339491750       -4.0461568998
  N        19.6025313603       15.8578222979       -4.1358682526
  O        18.9574507464       17.7294083252       -2.8961109680
  H         8.5703667482       14.6461922371       10.1603577544
  H         9.3927403738       14.7406270480        8.6221454116
  C         7.9291447829       13.0337218523        8.9369316341
  H        21.5792534048       13.4916937399       14.5600430004
  H        21.2155418071       13.9670128942       12.9669735064
  C        21.2010384520       15.5366252632       14.4843290288
  C        13.4775447256        7.9513261026       18.8465615287
  S        20.1758583347       13.6014524916       -5.4500115241
  C        19.5392721811       16.5211343976       -5.3984402161
  H         8.2094762247       12.4544587098        8.0394581245
  H         7.7573319746       12.3069333943        9.7386525564
  C         6.6717067680       13.6980129699        8.5070297310
  H        22.0160061199       15.4350580006       15.2248353317
  H        20.4199844500       16.0919378177       14.9983204065
  C        21.6735253805       16.4011172657       13.3582648091
  H        13.7203773372        6.8680166981       18.9187263916
  C        12.9046418052        8.4261433318       20.0143349476
  H        20.2994217983       16.1388440576       -6.1116091282
  H        19.8647280091       17.5732954444       -5.4200486684
  C        18.0924634875       16.2862552396       -5.9981280023
  H         6.1049812458       13.1453884455        7.7728434116
  H         6.9340844865       14.6809045140        8.0634219994
  C         5.7717430599       14.0545454662        9.6876970852
  H        22.5042629454       16.0540879802       12.9112454687
  H        20.9063157004       16.5685148858       12.6544325285
  C        21.9806386483       17.6767279898       14.1264721934
  S        12.1365575734        9.8948623857       20.3070842502
  C        12.7862887959        7.4521270762       21.1029094921
  H        17.4071877249       17.0309178622       -5.5683964418
  H        17.8002691279       15.3266518063       -5.6216558564
  H        18.0463133029       16.3395594609       -7.0960832085
  H         6.1823516556       14.8456598142       10.2302711849
  H         4.8184768311       14.5368624478        9.3797425571
  H         5.5932220182       13.1587732693       10.3205646947
  H        22.7556073588       17.5097776863       14.8572880546
  H        22.4200563861       18.4171504339       13.4474321914
  H        21.0658058092       17.9744226750       14.6627189088
  C        11.7126475037        9.2719867061       21.8579558967
  N        11.9811903877        7.9650928413       22.0211840448
  O        13.1939694248        6.2521356144       21.0709721502
  S        10.6147075006       10.1078871171       23.0997226516
  C        11.5609896863        7.1938170526       23.2553589540
  H        11.3298685613        6.1384340032       22.9698536425
  H        10.5744249721        7.5869131588       23.5558227084
  C        12.5918133445        7.2901601581       24.3613994129
  H        13.3543677648        6.5531196604       24.1947700904
  H        12.1382497620        6.9298475619       25.3349087871
  H        13.0311403125        8.2891099990       24.4664531869
