352
 i =    22700, time =    22700.000, E =        24.6635671436
  H        11.5361915400        7.3705793184       32.2998133595
  C        11.2887070349        6.3829795961       31.9773103408
  H        12.2922303323        5.8698311188       32.0050548394
  C        10.7204751127        6.5852313474       30.5606437625
  C        10.3298796274        5.6720002797       32.9442204306
  C         9.9218933816        5.4010965383       30.0261705003
  H        10.1086438008        7.4896229189       30.5543437869
  H        11.4963748195        6.7333867302       29.8713093630
  H        10.5630631929        5.7974487170       34.0011300520
  H         9.3198718674        6.0072938230       32.8734762987
  H        10.3563335825        4.5994238397       32.6418960402
  C         9.1225187969        5.8097100324       28.7809507324
  H         9.1740321380        5.1194137236       30.7645267329
  H        10.6324382685        4.6534465321       29.7748293288
  C         9.9501334010        5.7701810434       27.4860230649
  H         8.3098829873        5.0258593204       28.6556619466
  H         8.6637070404        6.7671033230       28.9676319091
  C         9.2185913233        5.1705539504       26.3278208167
  H        11.0043448471        5.5534513688       27.5989849031
  H        10.2764444193        6.7654914210       27.1422614252
  C         8.0066576327        5.9093347911       25.9381179971
  H         9.8839938684        5.0196718702       25.4668320466
  H         9.0404188860        4.1833487374       26.6600451685
  C         6.8364304401        5.1042435238       25.3341002172
  H         7.5108809856        6.3582783636       26.7256906873
  H         8.3537757071        6.6461871493       25.1638036936
  C         6.5085867864        3.7613723825       25.9537914023
  C         7.2948268648        4.3930789858       24.0609428411
  C         5.5974274709        6.0818134658       25.1923091585
  C         6.8728798427        2.6438761863       25.2194471279
  C         5.9147765819        3.3698471707       27.1930716004
  C         7.3546182244        3.0384120221       23.9502493840
  C         7.7504612090        5.0343851731       22.8981612632
  H         6.0264083787        6.9223736732       24.6869860058
  H         5.2572010177        6.5245753769       26.0912832162
  C         4.4022015674        5.4147132007       24.5187952721
  S         6.5731352660        1.1592864288       25.9633557405
  C         5.9785318192        1.9901507315       27.4000188837
  H         5.5729793554        4.0956458506       27.8540450845
  C         7.8145918335        2.3665325420       22.8162329129
  H         7.6550405049        6.1402853923       22.9964725707
  C         8.2332191892        4.4315903237       21.7367730838
  H         4.7536866922        5.1697763081       23.4936399905
  H         4.2714029038        4.3754014784       24.8632473105
  C         3.0755212742        6.2107079648       24.4986564093
  C         5.6901359164        1.2957239133       28.6439368382
  C         8.2495758126        3.0475767502       21.7148109039
  H         7.8348114325        1.3440432425       22.8837972654
  C         8.6109396172        4.8498173642       20.5347816188
  H         2.5381412981        5.8472056860       23.6647322498
  H         3.1749474911        7.2553764026       24.0926629481
  C         2.2007040570        6.2024432654       25.7228629358
  C         5.7715620583       -0.1132120862       28.8625761645
  C         5.4115729033        2.1414629403       29.8613626174
  C         8.7367755619        2.3611653714       20.4405936223
  C         8.8870185105        3.7358217883       19.7448183825
  S         8.9611502701        6.3392942365       19.7395423470
  H         1.2031885928        6.6951030734       25.5593394446
  H         2.7156772445        6.8319513444       26.4352374516
  C         2.0751754001        4.8292578220       26.4415259422
  N         6.1385870876       -1.0668768811       27.9359398361
  C         5.4781401492       -0.6814705526       30.0529662211
  C         5.1202638875        1.5505235196       31.1121375935
  H         5.4464874426        3.2628226532       29.8962433320
  C         7.6295320248        1.5791139450       19.7110190317
  C        10.1359195164        1.6130441707       20.6854599891
  C         9.3611603776        4.0757399091       18.4884477630
  C         9.4582999165        5.4576688124       18.3139806803
  H         1.7110319490        4.0731169022       25.7916938228
  H         3.0315890392        4.3715267464       26.8058753730
  C         1.1363178690        4.8978953540       27.7498078313
  S         6.1164285102       -2.4973127574       28.6356985345
  N         5.4725213744       -2.0730455386       30.0822013638
  C         5.1070448999        0.0573266018       31.2204354904
  H         4.9321485981        2.1724524373       31.9373454301
  H         7.2801732822        0.8024283469       20.3645386113
  H         8.0543488412        1.1312254578       18.8666220884
  C         6.4912930715        2.4725754760       19.2299671421
  H        10.2588018683        0.8345343703       19.9108868413
  H        10.0543240424        1.1022444054       21.6052371295
  C        11.2984256100        2.5629667989       20.8347380969
  H         9.6455223279        3.2873004427       17.7902179990
  C         9.8271192001        6.2178494523       17.0671867640
  H         0.9302047704        3.8686076116       28.0903459811
  H         0.3109384615        5.5653542620       27.6065370302
  C         1.8722297581        5.5461991138       28.9298698488
  C         4.9278794874       -0.6051745799       32.4635598574
  H         6.7400808107        3.1418289946       18.3950478940
  H         6.0224834688        2.9794817569       20.0209050043
  C         5.4285979350        1.6148239067       18.5767239339
  H        11.0520496226        3.2276432125       21.7222681313
  H        11.4105924941        3.1835099219       19.9470570403
  C        12.6326269677        1.7479934070       20.9404419851
  C         9.8472784795        7.6043351233       16.9093689560
  C        10.0077822920        5.4783041673       15.8194354728
  H         2.8836818285        5.0464569262       29.0171369725
  H         2.0420310521        6.5722716981       28.7080185923
  C         0.8670423366        5.3763476399       30.0975626711
  H         4.8553297967       -1.7222863134       32.4490676391
  C         4.7715416754       -0.1968053164       33.7431159334
  H         5.2466230328        0.6634047487       19.1059369485
  H         5.7811470172        1.3905870763       17.5858222896
  C         4.1292432136        2.3247022613       18.3539202235
  H        12.5985436636        1.0610704918       21.8325638365
  H        12.6794643637        0.9978256968       20.0827673057
  C        13.9161300972        2.6312715285       20.9480177922
  N         9.7806538719        8.5006804903       17.9748015043
  C        10.1341393160        8.2561743135       15.7240955933
  C        10.1668095467        6.0448970221       14.5690756130
  H        10.0631853143        4.4148180925       15.9375810136
  H         0.1182632251        6.1330275836       29.9407143170
  H         0.3247392165        4.3231954779       30.1158684398
  H         1.3776051397        5.3937726245       31.0549536025
  S         4.6988227301        1.4478942824       34.2954179095
  C         4.5525031508       -1.1692112305       34.7675801798
  H         3.9328363666        3.1540587967       18.9802264046
  H         4.0295139998        2.8075092586       17.3493250355
  C         2.9280558158        1.3655479927       18.4294505280
  H        13.6050522553        3.5210729883       20.5161512494
  H        14.6420155841        2.1462866125       20.3514909795
  C        14.4798956310        2.7831096887       22.3283732994
  S         9.7884247525        9.9939441414       17.3771397873
  N        10.1816226955        9.6465434828       15.8197276409
  C        10.3617310109        7.4761095562       14.5034388277
  H        10.3709518898        5.4353932159       13.7203764381
  C         4.3324748985        0.8519276987       35.8691378775
  N         4.3177651601       -0.4920206751       35.9478139635
  O         4.5892810383       -2.3973955334       34.6610862833
  H         1.9821349598        1.9668752211       18.3781130915
  H         2.9965159671        1.0015114205       19.3991711385
  C         2.8972367995        0.1714396222       17.4132569516
  H        15.1995870821        3.5881382005       22.3328383559
  H        13.6568986550        2.9625711976       22.9598338697
  C        15.1707424295        1.5263890055       22.9014683686
  C        10.6778704260        8.2327460675       13.2986570283
  S         3.8305624981        1.7356353057       37.2503409611
  C         4.2795875033       -1.2494637076       37.2799610026
  H         2.5468957193        0.6124122124       16.4919390074
  H         3.8820894154       -0.1972011760       17.2383110395
  C         1.9538842251       -1.0198501037       17.7952141985
  H        15.1940806734        0.7604631423       22.1815945974
  H        14.4901999188        1.1169315966       23.6685613675
  C        16.5287183373        1.8632923903       23.6460174017
  H        10.4920473354        9.2917868410       13.3537259493
  C        11.3046632773        7.9152040051       12.0982210741
  H         3.5495979969       -0.8662898917       38.0008059528
  H         3.8990451813       -2.2413410033       37.0369621355
  C         5.7370458854       -1.1502468054       37.9245592610
  H         0.9804865484       -0.7339231275       18.1737769529
  H         2.3547785359       -1.5886194117       18.6635690181
  C         1.9250720355       -2.0940219617       16.6356604521
  H        16.4022105173        2.7971427414       24.1757879900
  H        16.6581274858        1.2114622617       24.5000372275
  C        17.7436047715        1.9729598334       22.6956991604
  S        12.0758233401        6.4102289479       11.8763745694
  C        11.4636858277        8.9401081967       11.0072251387
  H         5.7970738939       -0.6401693018       38.8888688892
  H         6.2788222150       -2.0765079458       37.9003595914
  H         6.3739898453       -0.5505309837       37.3073360560
  H         1.6734533037       -1.5198874944       15.7374453215
  H         1.2463127845       -2.9635223436       16.8252348681
  H         2.9512081489       -2.4860419330       16.5032861199
  H        18.7031113136        1.7181823852       23.1977340341
  H        17.7652282512        3.0696023233       22.5123128239
  H        17.6659851929        1.5014687004       21.7537892878
  C        12.4095253072        6.9942331513       10.2208056052
  N        12.1125409809        8.3035702070       10.0128097484
  O        11.0629339330       10.0751485269       11.0088306637
  S        13.1301029936        6.1309623279        8.7889992305
  C        12.3760912752        9.0129417320        8.8007671528
  H        12.6043110546       10.0432548252        9.0010130786
  H        13.3434291291        8.7061599529        8.4332125581
  C        11.2191512882        8.9083929088        7.7654083076
  H        10.8124284430        9.9073539490        7.5509183807
  H        11.6406687084        8.6328053896        6.7912100035
  H        10.4052102696        8.1880013227        8.0108317338
  H        20.5418998584       10.8822525515        3.8011146565
  C        21.2402004737        9.9697131738        3.7605742991
  H        20.6083948804        9.0965079550        3.9910688217
  C        22.3849551553       10.1022833038        4.7911020696
  C        21.8563469158        9.8554923978        2.3660589648
  C        21.8992068868       10.5217685602        6.1313917506
  H        22.9631219128        9.2477023262        4.8878951291
  H        23.1533214384       10.8133926336        4.5107979875
  H        21.2026978207       10.1122511613        1.5347251542
  H        22.2178542714        8.8856325294        2.2583498022
  H        22.6741379461       10.5409221504        2.3407972661
  C        21.1303491848        9.4017826161        6.8303813303
  H        22.7431844376       10.6466977865        6.7168295649
  H        21.3205970132       11.4105242306        5.9944118102
  C        20.4271852806        9.8479256801        8.1002484035
  H        21.8472239636        8.5633265305        6.9608239643
  H        20.3407550799        9.0352415710        6.1495991344
  C        19.1486685195       10.6414745079        7.7961274763
  H        21.1211877089       10.3166869716        8.7867707919
  H        19.9025002576        8.9980348092        8.5275626104
  C        17.9792140864        9.9259055441        7.1342860463
  H        18.8628589638       11.0969995611        8.7263329314
  H        19.3858498536       11.5607755669        7.2564859794
  C        16.7009369201       10.7213664873        6.9149136883
  H        17.7676154426        9.0516328181        7.7585015269
  H        18.2467239178        9.6198663300        6.1200130258
  C        17.0374143162       12.0795450262        6.3411929896
  C        16.2853889928       11.3748414503        8.2098126844
  C        15.6129435576        9.9141814399        6.0839157514
  C        16.6409983510       13.1802354843        7.1311778139
  C        17.5996296825       12.4994056154        5.0995132832
  C        16.1863877137       12.7508955650        8.3212814455
  C        15.8477968114       10.6423712925        9.3064141670
  H        16.0100699449        9.7274165496        5.1047333437
  H        15.3764222707        8.9883619296        6.6509800232
  C        14.2680874730       10.6117665688        5.8181218414
  S        16.9594543167       14.7360306121        6.4472750447
  C        17.5691675096       13.8810588256        4.9751093725
  H        17.9876901079       11.7455161007        4.3532508634
  C        15.7944440601       13.3466538290        9.4820555454
  H        15.6537429348        9.5460085710        9.2736253423
  C        15.3192861712       11.2543043832       10.4280195025
  H        14.4020225186       11.5692721222        5.3033046576
  H        13.8327831957       10.8535751551        6.7948976154
  C        13.2659594617        9.8359091423        4.9100068656
  C        18.0025702700       14.6213305770        3.7305102397
  C        15.3913000153       12.6047839136       10.6153827977
  H        15.9102239861       14.4590722679        9.5323681050
  C        14.8818453288       10.7970235658       11.6203334616
  H        12.2196225979       10.0162725228        5.2162806222
  H        13.4223027734        8.7898725338        4.9219505878
  C        13.5150380412       10.1876167942        3.4213122512
  C        18.0919777639       16.0224368069        3.4818083991
  C        18.4361941585       13.8684932830        2.5451178253
  C        14.9245806675       13.2187983608       11.9271930399
  C        14.7037267715       11.8521238546       12.5272414126
  S        14.6915244576        9.2578025907       12.4107952387
  H        14.5408425424       10.5603850133        3.2840685565
  H        12.9118471343       11.0270567933        3.1459205375
  C        13.2768928237        9.0804805472        2.4295466467
  N        17.7561370541       16.9822112002        4.4114913105
  C        18.4328315101       16.6198136315        2.2223630489
  C        18.8383413661       14.4430858260        1.2953045332
  H        18.3948023898       12.8458167551        2.4666764506
  C        13.5551109985       13.9707879428       11.9324159917
  C        16.0717478065       14.0359560214       12.5482435713
  C        14.3122294367       11.4285614157       13.7870830133
  C        14.2502187905       10.0617828623       13.9125495825
  H        14.1877899062        8.5057751611        2.3173194691
  H        12.5319408763        8.3569549703        2.8271289083
  C        12.7716245230        9.4715369397        1.0652156631
  S        17.8687857047       18.4696911032        3.7650168231
  N        18.1078629477       18.0024703274        2.2511650506
  C        18.6978909231       15.8850112895        1.0758108492
  H        19.1794379600       13.7341633991        0.5247844486
  H        13.6009504999       14.8614420932       11.3738213403
  H        13.2753968484       14.2628759367       12.9227416408
  C        12.5062432388       13.2293137963       11.1880082591
  H        16.4622283871       14.6462460155       11.7620884393
  H        15.5875427938       14.7643811432       13.2535495101
  C        17.2241366669       13.3590728252       13.1740700327
  H        14.0014509555       12.2190503795       14.4246574551
  C        13.9229909745        9.3761984981       15.1977248214
  H        13.2469311929       10.4350694549        0.8363810023
  H        11.6867029520        9.6362242494        0.9848035060
  C        13.1977193565        8.6105949716       -0.1798295680
  C        19.0038243502       16.5717027551       -0.0885867939
  H        12.8931131149       12.9881631767       10.2534227615
  H        12.1906161546       12.4073919097       11.7965527279
  C        11.1817076641       13.9807325283       11.0940408712
  H        17.7972809012       12.7268652473       12.4915563242
  H        16.8761957721       12.7240697090       13.9596415088
  C        18.1506524928       14.4578199619       13.7868215699
  C        13.8290216763        7.9818540108       15.3293365541
  C        13.6571221676       10.1706339596       16.4249330895
  H        14.3050325942        8.4924343168       -0.3368509013
  H        12.7776819846        7.6434293232        0.0204923201
  C        12.6866399351        9.2661971857       -1.5079913495
  H        18.8411272411       17.5532494171       -0.0100258399
  C        19.2802808210       16.0992437031       -1.3924116756
  H        11.2797739100       14.8801810305       10.5227834912
  H        10.9427416524       14.4040755826       12.0895342866
  C        10.0383793461       13.1167545570       10.6013479944
  H        18.4319868286       15.1127015814       13.0398456853
  H        17.5813137747       14.8545643907       14.6188487606
  C        19.4805611193       13.9317456923       14.3087316549
  N        14.0590191280        7.0616805186       14.3307540949
  C        13.4869349271        7.3606916231       16.4954836181
  C        13.3455653329        9.5930371237       17.6547671361
  H        13.6768029173       11.2493020161       16.3083905367
  H        11.7396253342        9.6449328091       -1.2736966152
  H        12.6853288233        8.3869832284       -2.1406687060
  H        13.2826219396       10.1520593645       -1.8640152780
  S        19.6782190824       14.4591967676       -1.8103606730
  C        19.2514053218       17.0598336479       -2.4665946520
  H        10.5187361818       12.4277813673        9.9163200543
  H         9.6660768759       12.6007062523       11.4788977064
  C         8.8381156165       13.8296069866        9.9221051257
  H        19.6103500812       12.9762130770       13.8087218392
  H        19.4908314289       13.6061289759       15.3806822358
  C        20.6455466527       14.8144413917       13.9946545346
  S        13.7204334010        5.5990454486       14.8827954399
  N        13.1760704285        6.0001496555       16.4008013185
  C        13.2551043484        8.1070536278       17.7208505976
  H        13.0827175685       10.2087394705       18.5368323997
  C        19.8260524723       15.1341882085       -3.4979501875
  N        19.6500673011       16.4847291476       -3.6107905470
  O        19.0893216909       18.2430360569       -2.2175085008
  H         8.2302106171       14.4043625203       10.5963054057
  H         9.1860625756       14.6134117767        9.2048565314
  C         7.8491738669       12.8717167870        9.0158433832
  H        21.5108370904       14.2706235971       14.4284039171
  H        20.8592404251       14.7976618828       12.9348304068
  C        20.4801779947       16.2869717000       14.5114406335
  C        12.8596091406        7.4313618159       18.8631907738
  S        20.4218011303       14.2609985996       -4.9458252384
  C        19.7525104856       17.2237510947       -4.7933232755
  H         8.3098609127       12.9428374994        7.9958756765
  H         7.9941562316       11.8204188302        9.3430760736
  C         6.4133535986       13.4107288762        9.1413369296
  H        19.5036422091       16.4024713171       15.0936861708
  H        20.1030439821       16.8286773945       13.6905628486
  C        21.6835384118       16.9412661831       15.0024888485
  H        12.9664711125        6.3835536213       18.8212709694
  C        12.3572783879        7.7579018343       20.0580237660
  H        20.6161681275       16.8752049023       -5.3129736606
  H        20.0593258556       18.2543391412       -4.4709692897
  C        18.4030505720       17.0525008843       -5.5791222021
  H         5.8882993586       12.7763331528        8.3980932645
  H         6.3206791476       14.3802162087        8.6493782155
  C         5.8454797869       13.1665520228       10.5643639607
  H        22.0385132793       16.4137895249       15.9079954550
  H        22.3529524288       16.8354563040       14.1595622262
  C        21.5598982503       18.4481553188       15.3647169959
  S        11.7744282828        9.3362197888       20.6716586474
  C        12.1513365301        6.6755411237       21.0922021054
  H        18.5017184528       16.8063284272       -6.6274268863
  H        17.8078955005       17.9296970197       -5.4991160377
  H        17.8862276450       16.2114847049       -5.1231439808
  H         5.0794992422       12.4334864298       10.3117772674
  H         6.5688408491       12.9055149012       11.3159514236
  H         5.2966035756       13.9873675071       10.8540191989
  H        21.1119277778       18.8561492254       14.4671553272
  H        20.8601751356       18.6886618652       16.2314579620
  H        22.4612474789       18.9606363109       15.6883839085
  C        11.1662720272        8.5200083215       22.1211868411
  N        11.4725798118        7.1895629354       22.1900225725
  O        12.5864206913        5.5478784679       20.9657273927
  S        10.0942425720        9.0918458729       23.3773819216
  C        11.4216641528        6.3549879943       23.3884320354
  H        11.4841478540        5.3188109599       23.1165401933
  H        10.5302551758        6.5297679830       23.9830225570
  C        12.7618882925        6.5603041799       24.1670771993
  H        13.3924639841        7.2594535694       23.6049578399
  H        13.2390105048        5.6116756639       24.2172864490
  H        12.6460174826        7.0535798600       25.1295199280
