352
 i =    61100, time =    61100.000, E =        24.9880948736
  H        10.4269887162        4.7616887732       31.3422763593
  C        10.4002698693        5.7386811545       31.7559012896
  H         9.3291181764        5.9488204657       31.8320041166
  C        11.2536114913        6.6521565043       30.9256938128
  C        10.9495910662        5.7412796796       33.1653395199
  C        11.4642083860        6.3640398127       29.4567427895
  H        10.8141711088        7.6883028760       30.9963780080
  H        12.1913038707        6.7358201309       31.4650721972
  H        10.4547157779        5.0330607813       33.8334657126
  H        12.0101749189        5.5116368772       33.2290817316
  H        10.6853326315        6.6893236342       33.6435824945
  C        10.1310564258        6.0224257990       28.8334018952
  H        12.1359755478        5.5123196691       29.4949359365
  H        11.9197743331        7.2029698316       28.8542744764
  C        10.2782939774        6.0657901859       27.3497341994
  H         9.9526444863        4.9641268196       29.0340071521
  H         9.1883371261        6.4865665936       29.1585508359
  C         9.2863415148        5.2242486471       26.5000896136
  H        11.3061778364        5.7361473717       27.1535767951
  H        10.2727155206        7.1141226278       26.9163626041
  C         7.9842643948        5.9119757763       26.0320458638
  H         9.7519615880        4.8826425955       25.6281760234
  H         9.0196880823        4.3911297437       27.0856839448
  C         7.0230218983        4.9897510553       25.1219807192
  H         7.5088975982        6.2988258763       26.8754120715
  H         8.1160541053        6.8259229825       25.4360801635
  C         6.7643042226        3.6457969692       25.8759880311
  C         7.6955740209        4.2947786323       24.0590290790
  C         5.6318891986        5.6450021778       24.6333793645
  C         7.1703503174        2.5218398515       25.1716493779
  C         6.4255519877        3.3349330080       27.2116508621
  C         7.7794792397        2.9138919417       23.9637955566
  C         8.2369940395        4.9541049835       22.9475124013
  H         5.1256144006        4.9945550210       24.0120685032
  H         5.9080238174        6.5037617240       24.0597974038
  C         4.6047310254        5.8698252453       25.7863783676
  S         6.8217214849        1.0285651140       26.0226257761
  C         6.2710665619        1.9993771455       27.3201822144
  H         6.3193320322        4.0984355770       27.9881953134
  C         8.2771857165        2.3050495281       22.8490472924
  H         8.1654179736        5.9846602028       22.8644671758
  C         8.6497688377        4.3332531657       21.8355797195
  H         4.4487562689        4.8867347398       26.2437951276
  H         5.0939307911        6.5261856097       26.5405000834
  C         3.2405168148        6.3578918513       25.5055876937
  C         5.7869385296        1.3363226663       28.5759473849
  C         8.6580429020        2.9942622974       21.7283353585
  H         8.3790646105        1.2370708389       22.8805507663
  C         8.9779553987        4.7640090924       20.6056791777
  H         2.7604267693        5.6349173826       24.7248550952
  H         3.2988148868        7.3928622867       25.0627822771
  C         2.5476213704        6.6301080344       26.8286084845
  C         5.9266181206       -0.0158493666       28.9086731193
  C         5.1734528472        2.1858963612       29.6244943541
  C         8.9968482488        2.2800849245       20.5373983981
  C         9.2434276463        3.6566528759       19.7941347029
  S         9.1987692337        6.2740994814       19.8971611564
  H         1.9139305801        7.5266207956       26.6772342530
  H         3.2660695083        6.9434225153       27.6294805925
  C         1.6057142361        5.4941856985       27.3493084903
  N         6.2947824763       -1.0192745631       28.0197960589
  C         5.5950340947       -0.4731403825       30.1895368425
  C         4.8691677086        1.7290332660       30.8662165627
  H         5.0374447103        3.2273652045       29.4242070069
  C         7.8324508529        1.4455923407       19.8475217176
  C        10.3328084227        1.4969252259       20.7929999300
  C         9.6784247053        4.1337584960       18.5518587883
  C         9.6130683772        5.5053277388       18.3911619174
  H         0.6995392637        5.3917441264       26.7114487536
  H         2.1579205096        4.5735833532       27.1142084567
  C         1.3961253734        5.6045195269       28.8517652311
  S         6.2373282131       -2.4816402636       28.8571182072
  N         5.9683581353       -1.8198629558       30.3025202478
  C         5.0735242487        0.3134942720       31.2444062890
  H         4.3830597606        2.4693299486       31.5280212394
  H         7.6422272835        0.5575679763       20.4964697257
  H         8.2415924056        0.9790056036       18.8848441896
  C         6.4319913345        2.1962835001       19.6266045665
  H        10.6254307790        0.9552836252       19.9186293864
  H        10.2613189640        0.8443858222       21.6838501731
  C        11.5041526817        2.4824403925       21.1143315402
  H        10.0503519842        3.4345349702       17.8115187427
  C         9.9112665743        6.2673389764       17.1332999374
  H         0.5962157475        4.8979134140       29.1006545441
  H         1.1608782817        6.6967094349       29.1355910076
  C         2.6390290933        5.1370158875       29.6989644049
  C         4.8603677087       -0.3387473640       32.5372008583
  H         6.6061530094        2.9321307083       18.7865656739
  H         6.1264476348        2.7326911863       20.4821584106
  C         5.2620835553        1.3673239086       19.0728459777
  H        11.2951452343        2.9761402150       22.0717469092
  H        11.7775384315        3.2001852790       20.3569568365
  C        12.8740238807        1.7458918215       21.2313800707
  C        10.0269877212        7.7002742473       17.0549984316
  C        10.0881168810        5.5513286851       15.8908423365
  H         2.8358605096        4.0511910360       29.5162085777
  H         3.4519818018        5.6298739076       29.2555835141
  C         2.4235981916        5.3680027286       31.2227268985
  H         5.0590258792       -1.3505414072       32.5862639555
  C         4.5671719263        0.2202736480       33.7738586251
  H         5.1957755068        0.5341724829       19.7927132100
  H         5.4328021290        1.0204062763       18.1574892507
  C         3.8934442823        2.1130010308       19.1663661616
  H        12.7382336150        0.9008778881       21.8676144419
  H        12.9793779880        1.3595241623       20.2577083135
  C        14.0319814112        2.6037321611       21.8453157518
  N         9.9096248866        8.6013848158       18.1277462319
  C        10.2464212587        8.3800500773       15.8633201715
  C        10.5011453329        6.2167368227       14.8346303930
  H        10.2623823470        4.4240199781       15.7947520595
  H         3.1018850653        6.0546171454       31.7668954074
  H         1.3822079576        5.6205630550       31.2786518310
  H         2.6245313153        4.3893444252       31.6255434747
  S         4.2146592806        1.8809459754       33.9653218847
  C         4.5685254013       -0.6093452825       34.9974249791
  H         3.7600372664        2.4840948683       20.1599506168
  H         3.9103527117        2.9946585703       18.4867582123
  C         2.7446458576        1.1683570193       18.8986469626
  H        13.5980919438        3.5297928563       22.2743794490
  H        14.8329798267        2.7948219957       21.0858618319
  C        14.7989633518        1.8575897206       22.9519245168
  S        10.0948597700       10.1096404323       17.6047695325
  N        10.2508226800        9.7861929109       16.0415065721
  C        10.5085399244        7.6818490073       14.6340565114
  H        10.7341480243        5.5758701164       13.9686158772
  C         4.1623645555        1.4842596603       35.6798397227
  N         4.2594408869        0.1312704200       36.0582189102
  O         5.0163401458       -1.7421590330       35.0013305884
  H         1.8594594444        1.6202449205       19.2839287765
  H         2.9983296856        0.2375268892       19.5052662652
  C         2.5220887052        0.7872413118       17.4129997706
  H        14.0908707646        1.7853445570       23.7300000327
  H        14.9558385642        0.8474665957       22.5782500387
  C        16.0236868521        2.7484819445       23.4693968106
  C        10.8643742390        8.4643505410       13.5243459628
  S         3.9244592790        2.7253901785       36.8743163336
  C         4.2553591103       -0.3226081590       37.4068605788
  H         1.9711384669        1.5519916798       16.9577025718
  H         3.4785669605        0.6501323017       16.9030725733
  C         1.7713237249       -0.5369145204       17.3204757746
  H        15.6553334424        3.2934429598       24.3824960123
  H        16.3179476403        3.5522951943       22.7849508729
  C        17.2731503398        1.9710661204       23.6563858124
  H        10.6348519778        9.5028685457       13.7472044438
  C        11.3514378080        8.2005748043       12.3281190607
  H         3.6189694436        0.2236596806       38.1059016761
  H         4.0286015342       -1.3126484176       37.3805656669
  C         5.6819577417       -0.2454610927       37.9772387527
  H         1.4380323659       -0.8824397810       16.3560977420
  H         0.9423946659       -0.5238307802       18.0551368679
  C         2.5151938138       -1.7702655581       17.8886350366
  H        17.8643005465        2.3622502340       24.4655736352
  H        17.0589818774        1.0138801222       23.9515031421
  C        18.1219213453        1.9745489722       22.4121684407
  S        11.7157238404        6.6337014370       11.7764540211
  C        11.5992381536        9.2595045791       11.3559954948
  H         5.9841536740        0.8463956436       38.0129462002
  H         5.7617945215       -0.6380721070       38.9452149028
  H         6.3958003769       -0.8896707797       37.4004807361
  H         2.0863568301       -2.1109223654       18.8806920721
  H         3.5015251274       -1.5179915585       18.2556031315
  H         2.5473832322       -2.6635755775       17.2809946056
  H        17.5333386970        1.5713226379       21.6107823258
  H        19.0415076036        1.4151941196       22.6675040453
  H        18.2944457163        3.0075837453       22.0730101722
  C        12.1165340519        7.4686544675       10.2518115813
  N        12.1235878421        8.7674046214       10.2159003345
  O        11.4366592745       10.4797141585       11.5567820789
  S        12.7029463847        6.5607698380        8.8645086780
  C        12.2236760271        9.5784862741        9.0181245126
  H        12.5146774046       10.5409301670        9.3197963063
  H        13.0631513805        9.2487685418        8.4525332573
  C        10.8798104489        9.8974211522        8.2668712650
  H        11.1238604478       10.1179834402        7.2065105753
  H        10.1173215300        9.1454618583        8.1880473484
  H        10.3903589542       10.8184284377        8.5396351886
  H        21.6546979990        8.9813716566        3.7924305981
  C        22.6591490105        9.4032092063        3.8963224852
  H        23.2256781630        8.4778958224        4.0717064189
  C        22.8127808242       10.4052622635        4.9606849450
  C        23.1000041104        9.9558951438        2.5677445757
  C        21.4493834880       10.6153953939        5.6623918326
  H        23.6118796195       10.2030905088        5.6824191991
  H        23.1288015891       11.3169458780        4.5563508587
  H        22.3651624573       10.6401798507        2.1738536536
  H        23.2459680829        9.1424723547        1.8174662173
  H        24.0464645545       10.5391146005        2.5542383387
  C        20.8133422884        9.3884502484        6.3001928717
  H        21.4330442594       11.4321720559        6.3849820497
  H        20.8203095337       10.9287930034        4.8208420074
  C        20.2444377411        9.6502293542        7.6249287853
  H        21.6482429732        8.6764150980        6.3034954303
  H        20.1356483625        8.8599843912        5.5546823349
  C        19.0348235578       10.5755173990        7.5418737959
  H        21.0181451200       10.0379057414        8.2295399323
  H        19.8560339325        8.6990334952        8.0737288022
  C        17.8207253132        9.7502432151        7.2404666226
  H        18.9027429586       11.0970094738        8.4480962559
  H        19.2378566412       11.3508363438        6.8480181665
  C        16.5418374546       10.6224410394        7.1423620370
  H        17.6069473741        8.9823981102        8.0204719670
  H        18.0336654432        9.1006720872        6.4020195945
  C        16.8346011895       11.9452699938        6.4322699926
  C        16.1580884914       11.3781579321        8.3555123527
  C        15.3351656578        9.9227859237        6.4575931530
  C        16.7520511951       13.0714988096        7.2286137618
  C        17.0790947447       12.2748175714        5.0923109330
  C        16.2590751755       12.7349023697        8.4578634502
  C        15.7376818146       10.7075647033        9.4961222790
  H        15.7508626185        9.4076456834        5.6129039779
  H        14.9818258257        9.1658803003        7.2178022770
  C        14.1474599024       10.8017729501        6.0279300985
  S        17.1274873294       14.5189458840        6.4714408566
  C        17.4020409645       13.6055392529        5.0208688970
  H        17.1400953370       11.3835884896        4.3896111807
  C        15.7699980342       13.4066542971        9.5248528998
  H        15.6904184340        9.6794340507        9.4379903537
  C        15.3038578332       11.3382024133       10.6431564286
  H        14.4484247430       11.7142135129        5.4682330743
  H        13.7671137069       11.2236571943        6.8919948839
  C        13.2867897580        9.9264381561        5.2363813721
  C        17.8121181982       14.2589351774        3.7030138475
  C        15.2824284970       12.7072231791       10.6718627262
  H        15.7998752022       14.5154749685        9.5953147414
  C        14.9462451761       10.9475039570       11.8722011191
  H        12.3216125774       10.4280332591        5.1820605082
  H        13.1770076985        8.9956330243        5.7655848851
  C        13.9636545986        9.6470153612        3.8494186263
  C        17.8575341934       15.6508616049        3.4105451156
  C        18.3947070994       13.3800772629        2.6813098703
  C        14.7599807941       13.4410417319       11.9079894126
  C        14.6309650118       12.0546000486       12.6368106756
  S        14.9234192492        9.4083917236       12.6984555418
  H        14.5858250251        8.7731711025        3.9501743277
  H        14.5708983237       10.5321660467        3.6309388236
  C        12.8920465887        9.5149731747        2.7295384322
  N        17.5240423053       16.7129653551        4.3410630382
  C        18.2545511443       16.1146395654        2.1879433211
  C        18.8356663093       13.8693068872        1.4321790946
  H        18.5315060366       12.3358572357        2.7946541518
  C        13.4165369537       14.2204143616       11.5839656171
  C        15.8708948659       14.3735562622       12.5404289373
  C        14.2480039555       11.6483642880       13.9315133324
  C        14.3234895327       10.2922519782       14.0897551486
  H        12.0326922774        8.8264254620        2.9837878509
  H        12.6130991089       10.5700180329        2.3806210370
  C        13.4539717709        8.7664790407        1.5130909722
  S        17.5834571480       18.1040816669        3.4781114072
  N        18.0596229156       17.5286391422        2.0474628781
  C        18.7880330229       15.3556422578        1.1278644598
  H        19.1605903228       13.1634958097        0.6476916718
  H        13.6093891262       15.0212197991       10.8461507765
  H        13.1161769620       14.6261888341       12.5710087796
  C        12.1243726300       13.4743363466       11.2656815713
  H        16.0330023180       15.2297868547       11.8246319075
  H        15.4831947796       14.9136848384       13.3620899550
  C        17.0577462740       13.5995986658       13.1769013829
  H        13.8404093479       12.4322211959       14.6415598120
  C        14.0636123550        9.5759616346       15.3500910486
  H        12.7230420489        8.2862758492        1.0248251034
  H        14.0724680725        8.0138672659        1.8457905774
  C        14.1678581463        9.6783388970        0.5606723368
  C        18.9872193701       16.0821760766       -0.1161427643
  H        12.3356068229       12.9397746063       10.4137126775
  H        11.7799688542       12.8962535612       12.0656787646
  C        11.0074380359       14.4234514900       10.9428915947
  H        17.3935294054       12.8093290654       12.5335669946
  H        16.6873146373       13.0666800774       14.0574816324
  C        18.2252131733       14.5383259631       13.4929050774
  C        14.0718591603        8.1148742692       15.5486712139
  C        13.9105977934       10.3829242557       16.6101250235
  H        14.6111148298       10.5380931586        1.0548309433
  H        14.8610339721        8.9954022722        0.0703047151
  C        13.1982601650       10.2222315809       -0.4985181755
  H        18.8947067745       17.1308361269       -0.0119499235
  C        19.3664759173       15.6191243962       -1.3574051508
  H        11.2912769007       14.9941401810       10.0672552677
  H        10.6569106075       14.9861286352       11.8427305662
  C         9.7783400106       13.5827445835       10.5725593889
  H        18.4221795572       15.0616200449       12.5403638232
  H        17.8749835999       15.2811495239       14.2458779534
  C        19.3569705591       13.7399558727       14.1197612814
  N        14.0914265619        7.1240273742       14.5383051870
  C        13.7055587512        7.5621298215       16.7496111448
  C        13.7256047713        9.7571290322       17.8476145728
  H        13.8925639868       11.3851034520       16.6307296714
  H        12.2180418322        9.7576057382       -0.5677598077
  H        13.5884823840       10.1993526859       -1.5788475447
  H        13.0149836970       11.2422240468       -0.2136159359
  S        19.6320650128       14.0160561287       -1.8556551151
  C        19.4171967218       16.5860671739       -2.4866385972
  H         9.9436786347       12.5176206145       10.6446982081
  H         8.9511116285       13.9601176150       11.1786598187
  C         9.4575121028       13.7346722219        9.1573862335
  H        19.6835312908       13.0780181709       13.3126822519
  H        19.0002660181       13.1054978317       14.9701339330
  C        20.5537186868       14.5067282313       14.6100028970
  S        13.8335727865        5.6647129607       15.1942217161
  N        13.3999358494        6.1688099272       16.6617229220
  C        13.4926299085        8.3139617782       17.9050895469
  H        13.5016113324       10.2838844592       18.7275229385
  C        19.8200992243       14.6429607717       -3.5263053014
  N        19.6885401399       15.9900427830       -3.6384248748
  O        19.1091416688       17.7632854278       -2.3160817431
  H         9.5422830284       14.7363369957        8.6649098545
  H        10.1856287076       13.2201940792        8.5556089629
  C         8.1385251865       13.1028855461        8.8877669578
  H        20.4071887084       14.8231762584       15.6617503449
  H        21.5168299328       13.9893908529       14.6282954334
  C        20.7673145116       15.8389473071       13.7925528313
  C        12.8956674315        7.6774029940       19.1133633356
  S        20.4744439995       13.7712435173       -4.9201713383
  C        19.8058649622       16.7710554691       -4.8501194028
  H         8.0675412723       12.7953822696        7.8459097077
  H         8.0603505174       12.1492558110        9.3854060031
  C         6.8863706957       13.8651724525        9.2637768250
  H        19.9360940159       16.4655532499       14.0574737035
  H        20.6838127018       15.4823807777       12.8023198673
  C        22.0945019422       16.5240494323       13.8126301717
  H        12.9523926366        6.5896778800       19.0136624434
  C        12.3945380360        8.1182768471       20.2410694868
  H        20.7058671165       16.4577928943       -5.4361274371
  H        20.0972513812       17.7656159514       -4.4790288333
  C        18.4573941203       16.7737651067       -5.6504422726
  H         6.2077261226       13.9308076035        8.4009499241
  H         7.1429979145       14.9255544540        9.2734513025
  C         6.3596811205       13.5831119394       10.6612756332
  H        22.7658270021       15.7349037037       13.4480329157
  H        22.1530770386       17.3011968220       13.0636788592
  C        22.5581638392       16.9897944040       15.2398252472
  S        12.0539293906        9.7058551829       20.7244252137
  C        11.9891133908        7.0820405176       21.2437989932
  H        18.2220998433       17.7270831352       -6.0880104319
  H        17.6489737938       16.6026654842       -4.9399444520
  H        18.4500136126       16.1250321733       -6.5010302006
  H         6.7141983318       12.6531805639       10.9982350355
  H         6.5191339373       14.3805418118       11.4277414691
  H         5.2137197818       13.4171780341       10.5687410491
  H        23.5770826237       17.3060879978       15.3384676495
  H        21.9437216250       17.8089825130       15.6661674015
  H        22.2717725557       16.1294002189       15.8421122953
  C        11.3746109188        8.9833080753       22.2464313487
  N        11.3929114815        7.6601067065       22.3143932213
  O        12.0227829021        5.8809777251       21.0626261040
  S        10.5587050885        9.8690805907       23.5180295288
  C        10.8538972643        6.9603317576       23.3946060787
  H        10.7515640469        5.9407493986       23.0935001896
  H         9.8673361328        7.2537650581       23.8379322336
  C        11.8095865873        6.9170786242       24.4819224727
  H        11.8995384251        5.8989343680       24.8980527881
  H        11.5326232959        7.7708884051       25.1787248296
  H        12.9094848747        6.9901437688       24.1811099174
