352
 i =    77800, time =    77800.000, E =        24.8699119485
  H        10.3960563219        6.5968794405       32.0433354182
  C        11.4749345812        6.2907345880       32.0031831968
  H        12.0837995889        7.1869701003       32.0357463074
  C        11.9682811489        5.6396157549       30.6744772470
  C        11.6005255506        5.4215785245       33.1885447017
  C        10.9520793379        4.6800822467       30.0969699066
  H        12.3543083371        6.3173953137       29.8854700734
  H        12.8824486564        5.0944615347       30.9793698938
  H        11.9726700643        4.4506394521       32.9141239867
  H        12.3331038292        5.7357025542       33.9294170215
  H        10.5925540482        5.1388289410       33.5777306116
  C        10.0393620759        5.3247467264       29.0496121541
  H        10.3089872437        4.1355364578       30.8145963502
  H        11.6141717723        3.8740635981       29.7301927620
  C        10.5730356189        5.4213226140       27.6278038124
  H         9.1420449253        4.7318680607       29.0421996700
  H         9.6864168535        6.3105074782       29.4384512872
  C         9.5902268659        4.8651139076       26.6540918836
  H        11.4902164522        4.8774088938       27.5587392862
  H        10.8664946445        6.3918511157       27.3373936407
  C         8.2531219352        5.6125819932       26.5792530071
  H        10.0885564332        5.0560877996       25.7104856246
  H         9.3485774510        3.8387616267       26.7242847529
  C         7.1916795930        4.9222026768       25.7466906169
  H         7.8515334816        5.9631709548       27.4487239199
  H         8.4948921573        6.5019865116       26.0447695430
  C         6.9110077793        3.5533400913       26.3591668977
  C         7.6781139088        4.1657235999       24.5301213976
  C         5.8710774322        5.6426444979       25.4632747836
  C         7.0253590804        2.4066016051       25.5610536124
  C         6.5015333537        3.1172195118       27.6383304470
  C         7.6516766439        2.7876022172       24.4265915581
  C         8.2169008236        4.8666479937       23.4769155622
  H         5.3572040142        4.9650620242       24.7537750754
  H         6.1759193602        6.4916754476       24.8627997029
  C         5.0408926830        5.8870967163       26.7873367779
  S         6.4956810797        0.9183811891       26.1927606803
  C         6.3219416649        1.7223643515       27.7344755758
  H         6.3877639452        3.7773290360       28.4801288481
  C         8.1504625083        2.2090442814       23.3160704061
  H         8.1933189735        6.0578594224       23.5444187578
  C         8.6279786811        4.2371551816       22.3397779012
  H         5.3290147741        5.5107314242       27.7422077428
  H         5.2040074319        7.0098523972       27.0191867818
  C         3.5437315136        5.5875548901       26.5621310371
  C         5.8281508232        0.9937520715       28.9579137103
  C         8.6040092561        2.8979472453       22.1711518673
  H         8.1384462119        1.1398300162       23.2213958868
  C         9.1174033945        4.6042234196       21.1385231125
  H         3.3797227994        4.5624580576       26.3033553641
  H         3.1545800804        6.1253704594       25.6727990047
  C         2.6709749738        6.0185793214       27.7074623145
  C         5.9448234358       -0.4062723276       29.2077030090
  C         5.3858832981        1.7354708367       30.1710143902
  C         8.8392724287        2.2128737967       20.9302979615
  C         9.1655363727        3.5402387268       20.2825132883
  S         9.4528784027        6.1343575932       20.3341102534
  H         1.6642436245        6.2805238685       27.3348974290
  H         3.1549221377        6.9199735412       28.1340003794
  C         2.5332251278        4.9470488074       28.7675105809
  N         6.3930830713       -1.2999056136       28.2383479121
  C         5.6455773573       -1.0116094817       30.3785095498
  C         4.9431839677        1.0891541975       31.3078227437
  H         5.2959694045        2.8074252331       30.0464588504
  C         7.6081899132        1.4663201398       20.3393424060
  C        10.0764249140        1.3102444038       20.9670903389
  C         9.6337006846        3.9014351893       19.0424875640
  C         9.7535457764        5.2595102528       18.8286548134
  H         2.0730580466        3.9910699764       28.3680734799
  H         3.5846201379        4.7661014593       29.0964550983
  C         1.6280268029        5.4847557228       29.8844524782
  S         6.4099641381       -2.8064139237       28.9232064364
  N         5.9644162575       -2.3553013436       30.3909168549
  C         5.1076009630       -0.3560661245       31.5572493733
  H         4.6679670766        1.7888285938       32.0754725329
  H         7.1994945358        0.8334067157       21.1665890429
  H         8.0220207121        0.8405118682       19.5290584470
  C         6.5029872345        2.4182870151       19.8697490031
  H        10.4407986554        1.0127406873       20.0138476934
  H         9.8974363279        0.4562000708       21.5892068236
  C        11.3687427690        2.1245402620       21.3554501934
  H         9.7512390403        3.1989374634       18.2948022459
  C        10.0930062250        5.9510354965       17.5176202398
  H         0.7500992957        5.8700396169       29.3342622353
  H         2.0645142197        6.2834013474       30.4433422357
  C         1.1600055515        4.4503534849       30.9007841888
  C         4.8655639561       -1.0452924737       32.8191390182
  H         6.7279290621        2.9600137987       18.9223868185
  H         6.2985767363        3.1075951868       20.6865770652
  C         5.1908215378        1.5229952750       19.7214467426
  H        11.1512561419        2.8345542107       22.1133092036
  H        11.6369729772        2.8142790079       20.4903356607
  C        12.4968584543        1.2171139771       21.8310019730
  C        10.1739306640        7.3638632864       17.3729615369
  C        10.3072827337        5.1373686954       16.2654065374
  H         0.3401365048        4.9139994987       31.4597345005
  H         0.7734742728        3.6669189678       30.3228704990
  C         2.3203395972        3.8728704643       31.8531016405
  H         4.8172572957       -2.1059467952       32.7694297639
  C         4.6281405553       -0.6381317116       34.0897608716
  H         4.4166114600        2.1638836769       20.1852558281
  H         5.2711694354        0.6295670209       20.3649921980
  C         4.7479859920        1.1814836870       18.3337793384
  H        12.2042734403        0.6146308114       22.7020088930
  H        12.8619013483        0.4221551622       21.1730918071
  C        13.7000818997        2.0950271804       22.1411404892
  N         9.8956013815        8.3495894526       18.3257844336
  C        10.5035744253        7.9110950124       16.1599689892
  C        10.5431303949        5.7352962404       15.0483154498
  H        10.1910390177        4.1057345311       16.4572232106
  H         2.6081693300        4.8789937956       32.2476155813
  H         1.8988956786        3.2437514206       32.6448638720
  H         3.1705052913        3.4195961995       31.2519162960
  S         4.3293021538        0.9940150965       34.5767806339
  C         4.4555957860       -1.6242549980       35.1972795036
  H         5.0029464852        2.0003773274       17.7431195523
  H         5.2907622100        0.3368063383       17.9993943235
  C         3.1792700365        0.8939306671       18.1190715703
  H        13.3808433633        2.9144705574       22.7840960147
  H        14.1151601365        2.4479916319       21.2316199764
  C        14.8790904862        1.4045441127       22.8360415220
  S        10.0809513910        9.8239650300       17.6433161951
  N        10.5150393975        9.3213301168       16.1826284034
  C        10.7067221024        7.1927498539       14.9340185516
  H        10.6435857261        5.0963633160       14.2084396789
  C         4.1800665471        0.3747980636       36.2013556747
  N         4.1187173742       -0.9916200042       36.2845938362
  O         4.5140648516       -2.8495306908       35.0541182954
  H         2.9673108371        0.8874611343       17.0568663571
  H         2.5905251712        1.6702119765       18.5834257455
  C         2.7157413572       -0.4264644639       18.8302127679
  H        14.5561644070        0.7280630888       23.6081026945
  H        15.4920122911        0.8333939163       22.0543487278
  C        15.7021831829        2.3686629925       23.6362142435
  C        11.0448979805        7.9112167373       13.7739781141
  S         3.8151103509        1.3124012003       37.6341521695
  C         4.1577961103       -1.7526070178       37.5696120735
  H         3.5300560054       -0.9831635816       19.2879932331
  H         2.1175676317       -0.1230510185       19.6828423302
  C         1.8885284084       -1.2794545015       17.7814863596
  H        15.1642585041        2.7725185230       24.5008393706
  H        15.9967731570        3.1531343405       22.9785222141
  C        17.0490506031        1.8077371445       24.1772972416
  H        10.8220948108        8.9590585945       13.8473604962
  C        11.4721712100        7.5692599110       12.5156299577
  H         3.4352722128       -1.4055734811       38.2533525451
  H         3.6917625785       -2.7050329088       37.5297508625
  C         5.6701887274       -1.6642555163       38.1182462576
  H         1.1651350293       -0.6941767622       17.1919646526
  H         1.3669196444       -2.0684908682       18.3165525585
  C         2.8239436552       -2.0252605133       16.8246934931
  H        17.3487394505        2.4389846590       24.9553270451
  H        16.8700080748        0.7932284206       24.6824303514
  C        18.1018040424        1.7253335320       23.1121007729
  S        11.6762461994        5.9585633833       11.9617992250
  C        11.5098869662        8.6144939046       11.4645600738
  H         5.7280339649       -1.2299211143       39.0905072067
  H         6.0901823040       -2.7049231378       38.0725662110
  H         6.2398147411       -0.9717735017       37.4760597403
  H         3.4357526960       -1.2760916554       16.3347190584
  H         2.2436859541       -2.4913912676       16.0020446747
  H         3.5240811804       -2.6146216268       17.3638080251
  H        18.2293591528        2.6917100454       22.6484259612
  H        17.9489242300        1.0458453633       22.3168187512
  H        19.1039530368        1.5784914362       23.4875500841
  C        12.2040008010        6.7654454271       10.3885250558
  N        12.0281850503        8.1090676186       10.3670830445
  O        11.2770921138        9.8167576708       11.6011273249
  S        12.1427327463        6.0410474494        8.7853969002
  C        12.1564146184        8.9614893559        9.1532183710
  H        12.4905207747       10.0206087098        9.4910638910
  H        12.9333518901        8.6666854199        8.4958790843
  C        10.6936924176        8.9270454100        8.4741055820
  H         9.9665086444        9.6286065849        8.9083284984
  H        10.7604058491        9.1498623006        7.3877747546
  H        10.2621268850        7.9121912399        8.5900792368
  H        20.4566443193       10.8961908619        3.1113438813
  C        21.2043704763       10.1428591204        3.2617802389
  H        20.7838528358        9.2062578565        3.2906881240
  C        21.9056322873       10.3514202897        4.6182048057
  C        22.1701480386       10.1270847317        2.0973815104
  C        21.0019048568       10.3269883378        5.8132142550
  H        22.7142049982        9.6510729003        4.7661127400
  H        22.3883262695       11.2928628645        4.4921949200
  H        22.7152094761       11.0549218754        2.0321723638
  H        21.5588263796        9.9339851677        1.2239609331
  H        22.8223685344        9.2788495642        2.3021078867
  C        20.8190012853        8.8616107561        6.2837110651
  H        21.2977663791       11.0773257481        6.5951470429
  H        19.9934339846       10.5637767791        5.5146983413
  C        19.8237930808        8.9196986754        7.4670739055
  H        21.7189413359        8.3781292282        6.6085349705
  H        20.1874812387        8.2883346907        5.5330286068
  C        18.3491166497        8.9165944371        7.0065479085
  H        20.0864233864        9.7487898780        7.9890319957
  H        19.9729845690        8.0618872601        8.0958085919
  C        17.4116283088        9.6395432377        7.9272213745
  H        18.2140801329        9.3721552775        6.0317622818
  H        17.9715909559        7.8924966789        6.9208765663
  C        16.1693638794       10.4961835331        7.3177955008
  H        17.9723859789       10.3291561816        8.4744127721
  H        17.1454534524        8.9068915884        8.7173087121
  C        16.5852191529       11.8068278996        6.6891139173
  C        15.6484946537       11.2396273040        8.4925446262
  C        15.1034048647        9.7877684646        6.4970582492
  C        16.3145234856       12.9032151272        7.4509681812
  C        17.0172090927       12.1711559274        5.4264528125
  C        15.7507993769       12.5561406513        8.6173049318
  C        15.2208434537       10.4924620349        9.5810911017
  H        15.5752186177        9.1712181685        5.7913978846
  H        14.6881625155        8.9683797597        7.0989429688
  C        14.0827747749       10.6412037672        5.8513412395
  S        16.6815155238       14.3870297494        6.7385418890
  C        17.1936671645       13.5315431535        5.3634403917
  H        17.0486669085       11.4516804062        4.6419423756
  C        15.5478885676       13.1093338664        9.8344881188
  H        15.2504079218        9.4336999077        9.5870316619
  C        14.9937307022       11.1075306404       10.8227738059
  H        14.4234859048       11.6229483833        5.4186068679
  H        13.4396941339       11.0227750054        6.6532932623
  C        13.2304489905        9.9014687654        4.8400760685
  C        17.5399087777       14.2207103246        4.0593794181
  C        15.1634573894       12.3968241135       10.9909480148
  H        15.7878390059       14.1187287160       10.0715454804
  C        14.6846404323       10.6798342835       12.1259335795
  H        12.3044633341       10.4435040942        4.6386421988
  H        12.9193496518        8.9556996758        5.2796691084
  C        13.9208198691        9.6759534313        3.5032603759
  C        17.5059706792       15.5815551164        3.7959767431
  C        17.9710627725       13.4408059050        2.9014709992
  C        14.9031451108       13.0972850445       12.2545032684
  C        14.6756961121       11.7613743510       12.9932305197
  S        14.4847050637        9.2046038395       12.8811341222
  H        14.0479316217        8.6081443553        3.4924186563
  H        14.8338679698       10.2712474368        3.3559441220
  C        12.9851866677       10.0213434384        2.3113547993
  N        17.2442910625       16.5232049776        4.7316726754
  C        17.9585969440       16.1824467288        2.5983660063
  C        18.3510947069       13.9924690898        1.6564998025
  H        18.1637109031       12.4095447331        2.9866168660
  C        13.6651439691       13.8600042879       12.0061188122
  C        16.0370607809       13.9911954634       12.9296691628
  C        14.4881201836       11.4048409884       14.3214212518
  C        14.2852601134       10.0148027443       14.4462409960
  H        12.0381578079        9.4589252239        2.4868683153
  H        12.7678447916       11.0317309687        2.3083560595
  C        13.6621645150        9.6383936873        0.9376322306
  S        17.3744725848       18.0224944634        4.0968201552
  N        17.6868375656       17.5548828945        2.5640554706
  C        18.2917631371       15.4470507457        1.4664985087
  H        18.7693866445       13.2955913087        0.9266537094
  H        13.8835792748       14.6712856052       11.3234532784
  H        13.3706521739       14.3030764044       12.9326892897
  C        12.5272319553       12.9801814962       11.3500358617
  H        16.2066181120       14.9236919454       12.5310106415
  H        15.6153625308       14.1117338540       13.9504529412
  C        17.4427434370       13.3160965235       12.9578389060
  H        14.6498832235       12.1862628031       15.1221089900
  C        13.9489542070        9.3002685648       15.7259854309
  H        13.3150708705        8.6225626095        0.9379942842
  H        14.7433567949        9.6301409751        1.0913486102
  C        13.1730269441       10.2643283449       -0.4037402723
  C        18.4555916674       16.1152058911        0.2689879831
  H        12.7931391040       12.6079578370       10.3381369468
  H        12.3375956322       12.1452152856       12.0335106080
  C        11.2331383927       13.8081468152       11.1801623420
  H        17.8026885499       13.2194188311       11.9297147559
  H        17.2957098483       12.2688926555       13.2942011792
  C        18.5488161350       13.9936765520       13.8557657032
  C        13.9252862732        7.8993626039       15.8877698803
  C        13.7300788921       10.0836183837       16.9299479974
  H        13.2563171717       11.3559894757       -0.4357803963
  H        13.6429865098        9.9090992436       -1.3166141834
  C        11.6745323258       10.1099649022       -0.5583083536
  H        18.1485862820       17.1085360746        0.2964173814
  C        18.9362933158       15.7820131895       -1.0136874727
  H        11.2994399014       14.6086056303       10.4323947768
  H        10.9981876553       14.2471173857       12.1468347897
  C        10.1010117350       12.9078759788       10.7546796525
  H        18.9723512866       14.8276993590       13.2376968888
  H        17.9741054317       14.4123224850       14.7137419215
  C        19.6443458176       13.0433619443       14.3109109715
  N        14.0677180862        6.9750344950       14.8431190113
  C        13.5698524770        7.3266579861       17.1048216037
  C        13.3400514037        9.5154875282       18.0995392649
  H        13.8799933623       11.0960889308       16.9280529832
  H        11.1224214974       10.1727656158        0.3485456451
  H        11.5260309652        9.1473177640       -1.0423732431
  H        11.2133327758       10.7447899208       -1.2300765145
  S        19.4343518141       14.2615520253       -1.5264057024
  C        18.9171777472       16.8292460839       -2.0811748561
  H        10.5430164351       12.2789761946       10.0678991526
  H         9.6907772155       12.2634218566       11.5641387370
  C         8.8535720058       13.5521239182       10.1017840236
  H        20.2938396737       12.8270688137       13.4359728561
  H        19.2695296568       12.0754664037       14.7780153624
  C        20.6112002619       13.7484165976       15.2996529594
  S        14.0163587593        5.4781939115       15.4405001856
  N        13.5810486552        5.9339713666       17.0105130523
  C        13.2840083441        8.0489931574       18.2444148587
  H        13.1280936360       10.2369013736       18.8991051031
  C        19.6601411522       14.9226186490       -3.1717208540
  N        19.3435370874       16.2643324815       -3.2363143767
  O        18.6940339154       18.0367667987       -1.8298260938
  H         8.0137002699       13.3696941257       10.8029402528
  H         8.9735520349       14.6068033997       10.1313974504
  C         8.5143502155       12.9097488265        8.7734217299
  H        19.9419779468       14.1638686105       16.0395014687
  H        21.2825446911       13.1351083253       15.8704820736
  C        21.4897023057       14.8032558223       14.6527034227
  C        12.8431067931        7.3507184263       19.4488429758
  S        20.0182666563       14.0048327339       -4.6324803688
  C        19.3978442885       17.0695313033       -4.4372369992
  H         9.3039812798       12.9222503174        8.0439428852
  H         8.2862839969       11.8641879338        8.8807347357
  C         7.3026433415       13.5362075779        8.1638472722
  H        21.0132500482       15.2052780227       13.7963389113
  H        22.4573833966       14.4408045628       14.3251327348
  C        21.9226778735       15.9413708355       15.5233299622
  H        12.9689038185        6.2791971165       19.4286933269
  C        12.5243470596        7.7500458493       20.7007836264
  H        20.1254340956       16.7120198460       -5.1649658669
  H        19.8408247628       18.0520895126       -4.2919761684
  C        18.0490339771       17.1577470880       -5.2232998480
  H         6.9709768941       12.9754081296        7.2478179154
  H         7.4883644073       14.5879318348        7.9321771100
  C         6.1087968817       13.5301054810        9.1611844583
  H        21.9411582656       15.5125451695       16.5217932888
  H        22.9328706551       16.1688591010       15.2392281186
  C        21.0289716473       17.1432639584       15.6387649107
  S        12.1174258114        9.4023513824       21.1938615226
  C        12.4507058982        6.6444578396       21.7443121724
  H        18.1935624901       16.6966081756       -6.1989564841
  H        17.8035984751       18.2338139114       -5.3813806677
  H        17.1918845565       16.7231343114       -4.5769108309
  H         6.1697069755       14.2562259634        9.9879676755
  H         5.1949311944       13.5984230812        8.5987316296
  H         6.1696097211       12.5027394613        9.5455790494
  H        21.1317629413       17.7532158714       14.7372772295
  H        20.0108122770       16.8070180977       15.7008605259
  H        21.2584824358       17.7659415899       16.4826041580
  C        11.6362199898        8.5842465112       22.6898658376
  N        11.8446118173        7.2177078943       22.8019983226
  O        12.8010198210        5.4425322961       21.6095215026
  S        11.2872758651        9.4526780867       24.2493654294
  C        11.7045544541        6.4455299735       23.9809440251
  H        11.4394273924        5.3845695505       23.8305335011
  H        10.8849505147        6.7706340056       24.5053265704
  C        12.9772936953        6.4109648051       24.8323273865
  H        13.6655171766        7.1069212456       24.3499011117
  H        13.4351791407        5.4816886082       24.8606473490
  H        12.8461202519        6.8005559041       25.8415062913
