352
 i =    48400, time =    48400.000, E =        24.8093145050
  H        11.3313234185        7.0988057798       32.0393648158
  C        11.0885795382        6.0277739679       32.0815619848
  H        11.9541233428        5.4066361025       31.7237842950
  C         9.9562376524        5.6941290082       31.1402813374
  C        10.8164231118        5.5354190581       33.5159101054
  C        10.1433531358        6.3430978038       29.7841991666
  H         9.9349243389        4.6515775310       30.9447204585
  H         8.9899766782        5.9551380923       31.6597789301
  H        11.7735437311        5.7023442078       33.9987420446
  H         9.9936627457        6.0880967920       33.9421128021
  H        10.5835292441        4.4372352701       33.6424470053
  C         9.4073781955        5.5710029958       28.6608715519
  H        11.1587420142        6.3300448026       29.4148857424
  H         9.8362792937        7.3567988295       29.7537517495
  C        10.0804000282        5.6836514453       27.2425190827
  H         9.5337792276        4.5480658164       28.7942781506
  H         8.3336069533        5.7123016424       28.6415432884
  C         9.1487398480        5.0910848093       26.2528258867
  H        11.0084761155        5.0577423304       27.2817782413
  H        10.3786625046        6.7285894395       26.9889765969
  C         7.9321285037        5.9342151530       25.9385601874
  H         9.5940179110        4.8278780734       25.3410443322
  H         8.8388948663        4.1872095097       26.7131383588
  C         6.7914068557        5.2159466112       25.2538878021
  H         7.4308658486        6.1865843945       26.8819326000
  H         8.2388079645        6.8668835492       25.4964500443
  C         6.5093801719        3.8368826165       25.9788882865
  C         7.3240797998        4.4961795275       24.0649393502
  C         5.5413993897        6.0839701230       24.9117824997
  C         6.7174931363        2.6991526176       25.1936963868
  C         6.1111282334        3.3895514882       27.2324778184
  C         7.2516887262        3.1043719032       23.9559988556
  C         8.0383568745        5.0902438491       23.0320192449
  H         5.7834111206        6.8651825892       24.1780670336
  H         5.3081548031        6.6522731039       25.8116709739
  C         4.3096258679        5.2989243859       24.4241758360
  S         6.3628998968        1.1217361098       26.0138199759
  C         5.9832366681        2.0510625137       27.4100044074
  H         5.9355691462        4.1238684369       28.0242707452
  C         7.6910015322        2.4028616925       22.9187098553
  H         8.1172770951        6.1644310110       23.0400045592
  C         8.4795088442        4.4352014986       21.9468396855
  H         4.4395210686        4.7078190110       23.5193941499
  H         4.2539822292        4.4159434244       25.0824665965
  C         3.0656932567        6.2498589848       24.4325450579
  C         5.6461948285        1.3681500442       28.7189310497
  C         8.3263633740        3.0842405588       21.8446691322
  H         7.7497865412        1.3853975908       22.9138931794
  C         8.9976965553        4.7698563598       20.7004839677
  H         2.2195569302        5.9451454692       23.8316226752
  H         3.3220000361        7.2212548328       24.0428381117
  C         2.5115940191        6.5689585066       25.8527061022
  C         5.7290391974       -0.0657732795       28.9577033878
  C         4.9628512238        2.2101608239       29.7787952390
  C         8.7981442137        2.3297781393       20.5703618002
  C         9.1285084746        3.6389469391       19.8875273270
  S         9.3644926706        6.2441420175       20.0193265032
  H         1.6994644960        7.2648628690       25.5746653110
  H         3.2936265788        7.0431075421       26.4564287183
  C         1.8071858907        5.3326507031       26.3758737818
  N         6.1807213155       -1.0548358538       28.0984085963
  C         5.4057753344       -0.5976682557       30.1852425936
  C         4.8084821272        1.6579084429       31.0227249120
  H         4.9158401951        3.3578020019       29.6813892888
  C         7.6762704999        1.5727551246       19.7915392424
  C        10.1018684249        1.5204968463       20.7800983864
  C         9.5901547696        4.0862783099       18.6031272305
  C         9.6713225302        5.4409049782       18.4823667120
  H         1.1343295525        4.8760416575       25.6846895586
  H         2.5587603809        4.5722332865       26.4703646710
  C         1.1747477104        5.3825542350       27.7900010973
  S         6.0761759400       -2.5099496494       28.8465541345
  N         5.4706664332       -1.9957582878       30.2592888081
  C         5.1129218180        0.2226463922       31.3080002981
  H         4.5923292531        2.3584273898       31.8543809063
  H         7.2258546993        0.7333591622       20.3521779975
  H         8.0642850408        1.1628243192       18.8873646545
  C         6.6163648031        2.5136549452       19.2752698139
  H         9.9088084740        0.5932765189       20.1558451895
  H        10.2283601661        1.2266265154       21.8866219412
  C        11.4255950609        2.2227767303       20.5140736875
  H         9.9009135958        3.3124209535       17.8247355117
  C        10.0251470601        6.1759078555       17.2213922955
  H         0.7263581709        4.4440998155       28.1048492539
  H         0.4357437765        6.0893277718       27.5392646974
  C         2.1845630415        6.0406082295       28.6858611656
  C         5.0239108841       -0.3575749662       32.5859347046
  H         7.0708074872        3.1164152803       18.5285920233
  H         6.2570791097        3.1804007607       20.0182646198
  C         5.3670537701        1.7047139839       18.8156750385
  H        11.5797535577        2.9121832360       21.3219212754
  H        11.4764872659        2.5538710494       19.4923317094
  C        12.5998979706        1.1628280370       20.8286831769
  C        10.0060840981        7.5792365881       17.0502642000
  C        10.4072902010        5.3937179412       16.0461198690
  H         3.2004377965        5.5274793516       28.6718329072
  H         2.4589018711        6.9714565320       28.2775298405
  C         1.7565425649        6.0712763037       30.1902043998
  H         5.2236456003       -1.3989756712       32.6841972098
  C         4.8871673169        0.1259994709       33.8488728590
  H         4.9256240967        1.2066593977       19.6909461906
  H         5.7676786939        0.9826223636       18.2362588103
  C         4.5597888968        2.4804836775       17.8847582220
  H        12.5027762938        0.8104100357       21.8333142752
  H        12.3524536762        0.3227092684       20.2391586484
  C        14.0348582072        1.5121427683       20.4210730749
  N         9.7816424909        8.4902980412       18.0488426121
  C        10.3256180061        8.2240159353       15.8432870932
  C        10.6344177976        6.0454853749       14.8413602675
  H        10.4456752529        4.3853777539       15.9775477554
  H         1.2227271422        5.1447253382       30.3574590993
  H         2.6316466431        6.1653840330       30.8273172352
  H         1.1735792021        6.9205375502       30.4280595381
  S         4.5790113116        1.7522336767       34.3092882024
  C         4.9264892440       -0.8221354529       35.0213492082
  H         4.3535865999        3.5041108265       18.2400195861
  H         5.1878463728        2.6184252642       16.9939990482
  C         3.2226597686        1.7610922350       17.5735784441
  H        13.9459946382        1.9341642181       19.4033046541
  H        14.5073229472        0.5051821930       20.2730327124
  C        14.6610023526        2.5421142878       21.3948767954
  S         9.8651660198        9.9798859516       17.4850108383
  N        10.3467358700        9.6501828950       15.9509478389
  C        10.6653686826        7.5403892504       14.7110255783
  H        10.8959871461        5.3548672407       14.0148546887
  C         4.4472698456        1.1682718704       35.9364663229
  N         4.5139441509       -0.1574146944       36.1102684073
  O         5.1698463919       -2.0246663034       34.8431670416
  H         2.6633270032        2.1448847863       16.6902895543
  H         2.6924821944        2.0570108205       18.4501089036
  C         3.3508656201        0.1923991374       17.6103749639
  H        15.3298565289        3.1724915673       20.8284276471
  H        13.9782634618        3.1588760764       21.9044109921
  C        15.5076828632        1.6937936481       22.3676564111
  C        11.1063409658        8.3131620439       13.5425565979
  S         3.9792229232        2.2727815086       37.2781874774
  C         4.4137923225       -0.7519772467       37.4503378955
  H         4.3234599609       -0.0529919816       17.0278265409
  H         3.4117113959       -0.2315206565       18.5913376691
  C         2.1001697008       -0.5588060716       17.0571141658
  H        16.2748925578        1.2117506634       21.8052015230
  H        14.9501277360        0.9342776433       22.9054831070
  C        16.3422793538        2.4681269113       23.3406219905
  H        10.7699801860        9.3732274510       13.5138741381
  C        11.6053009507        7.9721918828       12.2933785074
  H         3.4088883199       -0.5409372598       37.9104580307
  H         4.2308107672       -1.7900386373       37.1243158269
  C         5.7020300427       -0.4637828587       38.2677937205
  H         2.2004466798       -0.7958384264       16.0113539356
  H         1.2329483741        0.0807533154       17.2279287590
  C         1.8321967078       -1.9402736641       17.7413778980
  H        16.0309074369        3.5066209226       23.4321685653
  H        16.2296011111        1.9227304485       24.2903610573
  C        17.8278317167        2.4955734787       22.8207818506
  S        12.1821025776        6.3810509060       11.7965576721
  C        11.6732399951        8.9792397084       11.1933973562
  H         5.5080800583       -0.6107523367       39.3134231961
  H         6.5010345264       -1.1900637896       37.8865815310
  H         6.2183316758        0.4681110320       38.0271580832
  H         1.2846323431       -1.8297004825       18.6070671932
  H         2.8462932050       -2.3059966065       17.9616480988
  H         1.5400411090       -2.5752220559       16.8933693715
  H        18.2794281837        1.4915662681       22.7041857287
  H        18.5354180402        2.8307080002       23.5049474257
  H        17.9058835279        3.1073115191       21.9241905467
  C        12.5297110272        7.1225567571       10.2218846838
  N        12.2545663632        8.4367281401       10.0589599345
  O        11.2590398517       10.1166385727       11.3790590158
  S        13.3692381911        6.3478218407        8.8744677890
  C        12.2729918737        9.2020225297        8.8330779074
  H        12.2095785483       10.2424851911        9.0504557412
  H        13.1425889251        9.0676502528        8.1972099188
  C        11.0305294123        8.8166183192        8.0229850990
  H        11.3858580169        8.0067280271        7.3979662603
  H        10.1581449754        8.4976370295        8.6841578112
  H        10.8139341137        9.6191207464        7.3528631637
  H        22.9897671088       11.6067260963        3.5044115646
  C        22.1619733591       10.8719371079        3.3941315529
  H        21.1135362621       11.2744350692        3.4075083333
  C        22.2105061904        9.9292879755        4.5726231778
  C        22.2264461849       10.1042678606        2.0490272230
  C        21.4712400851       10.4024077060        5.8233873277
  H        21.7622541909        9.1244270197        4.2233162743
  H        23.2407233572        9.5782965263        4.7849222507
  H        22.0088557493       10.8607355861        1.3002515179
  H        21.5014317341        9.3136894252        1.9293581870
  H        23.2393125731        9.7089163317        1.9216527848
  C        21.0227484745        9.1138444982        6.6251697842
  H        22.1455637133       10.9817642768        6.4714875588
  H        20.6343835539       10.9536661033        5.4931044782
  C        20.1976931133        9.3078355449        7.9271384423
  H        21.8577391708        8.4878661120        7.0201030739
  H        20.5998919878        8.4611153680        5.8999805474
  C        18.9966485185       10.2806561105        7.8119072108
  H        20.8250727137        9.7484991083        8.6545969012
  H        19.8633951541        8.3754807424        8.2758254738
  C        17.9210547198        9.7436179325        6.8198242491
  H        18.6816609321       10.4717483300        8.8072870009
  H        19.2458513508       11.1988891318        7.3146600161
  C        16.6366490735       10.5792676734        6.7189975965
  H        17.5266841782        8.7626841541        7.1899207937
  H        18.3411277344        9.5228114102        5.9014619489
  C        16.9187005963       11.9615266127        6.1178915777
  C        16.0776660434       11.3096563087        7.9534323040
  C        15.5455826428        9.7889943253        6.0072563759
  C        16.5060647800       13.0893705636        6.8561747186
  C        17.5259867629       12.2790644292        4.9235810355
  C        16.0183841877       12.6747145021        8.0815884089
  C        15.7262077134       10.6428416799        9.1209188220
  H        16.0443132911        9.3259990648        5.1518225713
  H        15.3376040534        8.9980115124        6.7321592300
  C        14.3090685211       10.5425614549        5.4458988928
  S        16.8395653349       14.5674954342        5.9874423411
  C        17.4979649442       13.6440200572        4.6729474348
  H        17.8431647688       11.4214416400        4.2920103310
  C        15.5557503676       13.3371901299        9.2073653810
  H        15.8640955843        9.6018561292        9.1320863188
  C        15.3197489295       11.2994913712       10.2477158754
  H        14.7868755887       11.3516237692        4.8249673804
  H        13.8212200650       10.9872124612        6.2809156283
  C        13.2558870648        9.8388593790        4.6549044401
  C        18.0345710575       14.2445630609        3.4556842275
  C        15.2214199594       12.6113993252       10.2942971176
  H        15.5424151587       14.4560070108        9.2292772617
  C        14.9440515278       10.9392590760       11.5426051271
  H        12.2756769794       10.3395909524        4.7037398379
  H        12.9869163573        8.9135266043        5.1550762497
  C        13.5406407281        9.3786189676        3.1835602177
  C        18.0808385641       15.6331689525        3.1547728285
  C        18.6115676483       13.3330519149        2.4048661927
  C        14.8829258707       13.3392746623       11.6155772236
  C        14.7522083568       11.9647173991       12.3784761024
  S        14.7477850139        9.4014026361       12.3190660537
  H        12.6729978685        8.6933587866        3.0254761901
  H        14.5188949438        8.8800614806        3.0475730301
  C        13.4689336819       10.4243328759        2.1398210476
  N        17.8190603389       16.6354684985        4.0754568637
  C        18.4304355248       16.1400306947        1.9053381832
  C        18.9374525302       13.8165662187        1.1417703240
  H        18.7798916735       12.3297935155        2.5924378302
  C        13.6010374323       14.1676123542       11.4842659351
  C        16.0919841914       14.2214467003       12.1612629844
  C        14.6023542037       11.5369244615       13.7276790661
  C        14.5162291760       10.1964194646       13.8531532279
  H        12.6782974342       11.1507002967        2.2660210435
  H        14.4013655646       10.9034356075        2.3303102409
  C        13.4985987184        9.7419684003        0.7046351802
  S        17.8919016346       18.0798822518        3.2909264655
  N        18.4275534742       17.5734201332        1.8406301568
  C        18.7112376966       15.2913370907        0.8218750617
  H        19.3545638581       13.0894377885        0.4515539975
  H        13.7351154661       15.0465855343       10.8445253220
  H        13.2871672622       14.5909952831       12.4376783365
  C        12.2831687575       13.4170378837       11.0698587119
  H        16.4669688567       14.8592235237       11.4159913844
  H        15.6553576253       14.8714613606       12.9257450643
  C        17.2742259275       13.4633752622       12.7475410375
  H        14.3866070689       12.2024879500       14.4774077172
  C        14.1303352085        9.3959141722       15.1115715527
  H        13.0037207201        8.7597414536        0.8143017774
  H        14.5071128144        9.6022569360        0.4026541461
  C        12.9920926897       10.7151931685       -0.3202424815
  C        18.9274604966       15.9070725146       -0.4876553745
  H        12.5215848238       13.0095679089       10.1188460885
  H        12.2959099105       12.6200636656       11.7805860211
  C        10.9368517616       14.2351362272       11.0562811215
  H        17.7005742609       12.8220615149       11.9428289153
  H        17.0065109576       12.7285982265       13.5076548278
  C        18.2259210965       14.3614682941       13.5465255025
  C        14.0965074673        7.9776599429       15.2329709165
  C        13.8721079847       10.1977166719       16.3239997291
  H        13.4891850633       11.6404854149       -0.1166880688
  H        13.4853986211       10.3618532578       -1.1858457617
  C        11.4934253290       10.6888366674       -0.5624151447
  H        18.9868523949       16.9841781741       -0.4210726393
  C        19.1376865297       15.4624111545       -1.7687661999
  H        11.2455969251       15.0498762753       10.3645370988
  H        10.6640585969       14.7065029828       11.9795800330
  C         9.9149244282       13.2338269242       10.4215860976
  H        18.5439687310       15.1687158856       12.8545866913
  H        17.6298752308       14.7445224572       14.3818774101
  C        19.3732467863       13.4952786931       14.2190353026
  N        14.3393709689        7.0675581773       14.1688206947
  C        13.8099168825        7.3058169904       16.3920387695
  C        13.5640766603        9.4999781107       17.4912688334
  H        13.8013737750       11.2858396911       16.2900623420
  H        10.9254198801       10.6814350428        0.3521093300
  H        11.1993050582        9.8732517636       -1.1813490943
  H        11.1835107589       11.5093525041       -1.2092860348
  S        19.5042839136       13.7706021339       -2.1907395316
  C        19.0384507831       16.4268684644       -2.8593223624
  H        10.3524311263       12.5441260883        9.7159402818
  H         9.5893118151       12.5074214684       11.2237259868
  C         8.7274500753       13.8596062040        9.6949426549
  H        19.4359281207       12.4034034385       13.8460943212
  H        19.3102411549       13.3563401697       15.3306430477
  C        20.7168211633       14.2030095468       13.8190874204
  S        14.4562648299        5.5465327693       14.8059286393
  N        13.8086721566        5.9349107265       16.3041640210
  C        13.4802176685        8.0030480871       17.5831742757
  H        13.3415219078       10.1132774600       18.3916050918
  C        19.6399914818       14.4216045462       -3.8600098590
  N        19.3665732123       15.7503261041       -4.0108416217
  O        18.9182383384       17.6604935794       -2.7390184056
  H         8.2080993879       14.5211957477       10.3676525127
  H         9.0601165180       14.5651305405        8.9419462619
  C         7.8893429336       12.8971057195        8.8661466413
  H        21.5514155927       13.4707206283       13.6841598716
  H        20.7342520739       14.5500353600       12.8084601990
  C        21.0371600208       15.2983026360       14.8810593924
  C        13.1393230864        7.1558346364       18.7641768725
  S        20.1386773923       13.4546097193       -5.2547263064
  C        19.4417593567       16.5162651245       -5.2819176684
  H         8.3549456000       12.6113764133        7.9357793146
  H         7.8515583129       11.9153001416        9.4115255214
  C         6.5132439337       13.4822569980        8.4637565485
  H        21.5885738367       14.8997964841       15.8004962869
  H        20.2111890904       15.8446609997       15.3986680106
  C        21.9487394966       16.3767984321       14.1731976009
  H        13.3391576369        6.1130903059       18.6696304305
  C        12.6679004494        7.4063258193       20.0270670770
  H        19.6059472167       15.8204823435       -6.1342854510
  H        20.3671988236       17.0588926357       -5.3386274394
  C        18.3088803135       17.4261803643       -5.6000241825
  H         6.0366024296       12.9068253729        7.6690943272
  H         6.7155043345       14.4262720145        7.9448839608
  C         5.5808539064       13.7147280614        9.6049343631
  H        22.8265937219       15.8750865229       13.6967016211
  H        21.4883761494       16.8147631978       13.2991413145
  C        22.4999332157       17.5645357299       14.9531362884
  S        12.2581227070        8.9783359876       20.6376865101
  C        12.5042571400        6.3672044167       20.9921141717
  H        18.1286531706       17.6145228739       -6.5703020317
  H        18.4581097299       18.3666721281       -5.0274696656
  H        17.3535874001       17.0460266919       -5.2193958113
  H         4.7983201773       14.5290222987        9.5529437584
  H         5.1305801016       12.6891334425        9.6833306311
  H         6.1166759874       13.8178955819       10.5324743190
  H        21.7244387665       18.2094487401       15.3269512305
  H        22.9485025904       17.3725071980       15.9151764041
  H        23.1321408985       18.2209739789       14.3671016271
  C        11.9109139854        8.1534704143       22.1091446888
  N        11.9742036015        6.8302692758       22.1278058793
  O        12.7885541974        5.1402876727       20.8086917241
  S        11.4834649807        9.0681189590       23.6242618853
  C        11.7539570256        5.9494224875       23.3047316029
  H        11.4242595434        4.9096969290       23.0100406653
  H        11.0261666219        6.3419058844       24.0689896447
  C        13.0992353168        5.8565494232       24.1043687252
  H        13.8571893217        5.1170220723       23.7329285127
  H        12.8683709088        5.7106028643       25.1135276058
  H        13.5157112019        6.8903577877       24.0287518881
