352
 i =    48100, time =    48100.000, E =        25.0377400470
  H        11.5723281539        7.3260847407       31.6659677262
  C        11.1481041422        6.4020830866       32.0696917167
  H        11.9538861089        5.7055783814       32.2132188063
  C        10.1961691177        5.9422261427       30.9760519252
  C        10.4679320645        6.7121252380       33.4006091697
  C        10.8057729376        5.9585756898       29.5695736563
  H         9.8195987040        4.9069102942       31.1123519778
  H         9.3098874511        6.5130750038       30.9960321475
  H        11.0607585864        7.3930728531       34.0619708137
  H         9.5011413392        7.1647136959       33.3067340341
  H        10.2847457474        5.7895171078       33.9706065892
  C         9.9479303744        5.3611977683       28.5579848085
  H        11.6015156037        5.2644753062       29.6440387785
  H        11.1782780170        6.9149071819       29.2136410032
  C        10.6528989586        5.2450038703       27.1822244678
  H         9.4826111814        4.4024162355       28.8892032283
  H         9.1251709538        6.0794734921       28.5399055338
  C         9.7050638649        4.7758786255       26.1258169358
  H        11.4708197944        4.4723867808       27.1294220348
  H        11.1301572059        6.1672596264       26.8417713684
  C         8.5660794034        5.7287833938       25.7331348297
  H        10.2469706318        4.4000655389       25.2539315653
  H         9.3290750089        3.9330879309       26.6571634693
  C         7.2951641357        5.0331374725       25.2054504786
  H         8.2831742232        6.2871853084       26.6035229137
  H         8.9200066156        6.4549067053       24.9756200169
  C         7.0339550627        3.7267239184       25.9022794610
  C         7.6767600259        4.3354445999       23.9539301952
  C         6.1645952968        6.0228356547       25.0271062589
  C         7.2419034928        2.5938052995       25.1180077380
  C         6.5043932250        3.4042019529       27.1863801048
  C         7.7615749956        2.9965001291       23.8960404827
  C         8.0934829314        5.0310281002       22.8151380218
  H         6.4203662613        6.7276634756       24.2937846711
  H         6.0428746290        6.5370933071       25.9847655738
  C         4.9754658574        5.2043391280       24.5822861603
  S         6.7544145212        1.1437559820       25.9471267078
  C         6.3780904428        2.0689398154       27.4219509737
  H         6.3575474261        4.1901031375       27.8843957762
  C         8.1524596709        2.4214505928       22.7074402125
  H         7.9751357834        6.0892204663       22.7336270493
  C         8.3967625236        4.4134372669       21.6025056963
  H         5.1830168329        4.8136317949       23.6656040106
  H         4.6814420323        4.4670145290       25.2736023724
  C         3.6725770572        6.0200584702       24.4707286094
  C         5.8286127428        1.3857282984       28.6337070366
  C         8.4216457048        3.0993957359       21.5464300584
  H         8.2116761315        1.3722028808       22.7323105283
  C         8.8475828686        4.7592545052       20.3482818410
  H         3.1027799119        5.4684134525       23.7026424215
  H         3.9331874145        6.9118362984       23.9336876842
  C         2.7591049942        6.2708070470       25.7021959124
  C         6.0421572312        0.0181179631       28.9964149905
  C         5.2248835806        2.2597901599       29.7139679094
  C         8.9145923218        2.3796222968       20.2427894201
  C         9.1191047543        3.7031508375       19.5414445854
  S         9.0108655171        6.2800580303       19.5558114921
  H         1.9240784999        6.9525625229       25.3583139009
  H         3.4573224316        6.7935207163       26.3598837322
  C         2.1536101675        5.0625562118       26.4990305237
  N         6.6023640291       -0.9517072813       28.0989095043
  C         5.6761851112       -0.5213502840       30.2220797736
  C         4.8648924195        1.7854639384       30.9380980431
  H         4.8074779110        3.2129512525       29.4055119144
  C         7.8921124809        1.4898838901       19.5212339290
  C        10.1200650353        1.5108339568       20.5035236923
  C         9.5739995495        4.0963504776       18.2413485485
  C         9.5802871879        5.4599336425       18.1007709778
  H         1.3882591305        4.5994415286       25.8141665017
  H         2.8983184076        4.3335126071       26.8036839473
  C         1.2970099442        5.4157110295       27.7535449992
  S         6.5589684630       -2.3844674281       28.8498737779
  N         5.9553473451       -1.9138313193       30.2794808266
  C         5.1261671319        0.3328205529       31.2773833828
  H         4.4077152988        2.4340165906       31.6232578060
  H         7.6103377375        0.5832122828       20.0656406278
  H         8.2697091722        1.1941550109       18.5290349125
  C         6.6104201466        2.3089318127       19.2493154815
  H        10.2821248387        0.9504316750       19.5813473856
  H         9.8993418003        0.7022650966       21.1627070412
  C        11.3707152220        2.2893590557       21.0222202422
  H        10.0257238419        3.2948615721       17.6200406141
  C         9.9524044130        6.1145128189       16.8143603906
  H         0.7581809573        4.5138250386       28.1531816093
  H         0.6729650000        6.2510780364       27.4210429575
  C         2.1061817644        5.9915633531       28.8896392587
  C         5.0084364833       -0.2846994158       32.5765771798
  H         6.6848200365        2.9738358845       18.3796478170
  H         6.2586159726        2.9066851866       20.0298316206
  C         5.4784111896        1.4460511202       18.8065504159
  H        11.1675094917        2.9262006270       21.9095799086
  H        11.5727052657        3.0140166140       20.2713500082
  C        12.6047976615        1.4229077853       21.4340589260
  C        10.0662241513        7.5027074078       16.6350475606
  C        10.1014359623        5.2990201073       15.5528426320
  H         2.8992307531        5.2976932954       29.0555648486
  H         2.7074929713        6.7845829958       28.4033870988
  C         1.3386631172        6.3151127832       30.1831041392
  H         5.1600939019       -1.3413395398       32.5875002244
  C         4.6943139991        0.2442719934       33.8241548591
  H         5.1493539797        1.0688680232       19.7621090607
  H         5.9044307507        0.6164665494       18.2441557117
  C         4.3934399142        2.2060840272       18.0048044661
  H        12.9465263716        1.4659285422       22.4620932017
  H        12.4564784635        0.3788871106       21.1656507574
  C        13.9243859212        1.8655237313       20.7681942304
  N         9.7348916537        8.4593220421       17.6285442172
  C        10.3919428193        8.1668320347       15.4662950236
  C        10.3254654581        5.9776732492       14.2580792255
  H        10.0527158102        4.2669363831       15.4826127798
  H         1.1694193054        5.4096429502       30.7637718037
  H         1.7746991743        7.1669521401       30.7506045596
  H         0.2886371441        6.6896963329       29.9482519531
  S         4.4312961564        1.8949583927       34.2962458455
  C         4.6629222705       -0.6800511896       35.0220214273
  H         4.1131243873        3.1313739982       18.5000251701
  H         4.7750462796        2.4541831959       17.0255635061
  C         3.0565921351        1.4140371711       17.9473219516
  H        13.7043897527        2.4663386303       19.8993829590
  H        14.4721530591        1.0168166414       20.3874064174
  C        14.8656938541        2.6526078292       21.7398069939
  S        10.0366232939        9.9930371908       17.1279641082
  N        10.4609532973        9.5548623556       15.6067255144
  C        10.5046948382        7.4664824684       14.2222277133
  H        10.2795534533        5.3719732616       13.3376179488
  C         4.0585308932        1.2497180861       35.8670821289
  N         4.2707652664       -0.0327043005       36.1046194375
  O         4.7341808002       -1.9066365070       34.9166809369
  H         2.5870330702        1.7746927615       16.9837182446
  H         2.2714591114        1.7351248580       18.7151377988
  C         3.3009543810       -0.1204779206       17.7150240191
  H        15.6135888550        3.0331220368       21.1104599312
  H        14.3582719046        3.4849869961       22.2963470663
  C        15.5860457023        1.7198831979       22.6883987085
  C        10.7412132075        8.2525098744       13.0688694605
  S         3.3829380941        2.1905658585       37.1891490006
  C         4.1654987917       -0.6528715751       37.3760251956
  H         4.2602668996       -0.3141249659       17.2736678380
  H         3.3794096147       -0.5961837864       18.6812497353
  C         2.1033145488       -0.6433100557       16.9917141926
  H        15.8411755785        0.7150506759       22.3280042486
  H        14.9371891890        1.6340298626       23.5482450232
  C        16.9124299746        2.4354266301       23.1314042478
  H        10.6515570334        9.3437531882       13.1863032878
  C        11.1632446205        7.8870268658       11.8233788792
  H         3.2614495708       -0.4206210267       37.8720061547
  H         3.9622057481       -1.7723748944       37.3637998237
  C         5.4186971633       -0.4394844798       38.1591984969
  H         2.0167425253       -0.2204612995       16.0252368695
  H         1.2342923996       -0.2076447399       17.4744288403
  C         2.0802844505       -2.1320231320       16.9820335090
  H        16.7745028163        3.4553493114       23.4265086035
  H        17.3426884275        1.9172815610       24.0469197747
  C        17.9800355183        2.5411537721       22.0261599558
  S        11.6901744852        6.3535942237       11.2570887051
  C        11.3665354199        9.0048202616       10.8766473234
  H         5.9463902019       -1.4577588179       38.1723018629
  H         5.9920241500        0.3092201071       37.6528684215
  H         5.2902567604       -0.1569613118       39.1966442101
  H         1.3381563262       -2.5319786275       17.7431535540
  H         3.0144006234       -2.6293639548       17.2547051363
  H         1.9289912506       -2.4940208654       16.0508942655
  H        17.9210986804        1.7508874946       21.2338126568
  H        18.9768201795        2.3775993527       22.3837242631
  H        17.9380031952        3.5487084411       21.5518763111
  C        12.1658904230        7.1758922751        9.8047959085
  N        11.9414870667        8.4884076105        9.8004256510
  O        11.0762828762       10.1852531704       11.0583480713
  S        12.9758167591        6.4546083204        8.4015100460
  C        12.3164705504        9.3367901216        8.7083717637
  H        12.4155090429       10.3398350261        9.1060674489
  H        13.3005853568        9.1465583256        8.2632814962
  C        11.1403830353        9.2688012783        7.6795794218
  H        10.4405147403        9.9624176851        8.0038021630
  H        11.4056356143        9.5401057810        6.7324257977
  H        10.6891068410        8.2835332444        7.7555437472
  H        21.7302008699       11.6279775215        3.8149594593
  C        21.7823515158       10.6064524400        3.4720737756
  H        20.7946618124       10.2742093707        3.3197905197
  C        22.3934477754        9.7693477714        4.5687736144
  C        22.6953879723       10.4184450473        2.2004980584
  C        22.1019095707       10.2065475183        5.9453156905
  H        22.0164654000        8.6934396755        4.3681119271
  H        23.4526213712        9.7732534164        4.5388591918
  H        23.7067186292       10.7277352812        2.3918715787
  H        22.3441125671       11.0368618729        1.3545651199
  H        22.6640766190        9.4121161205        1.8084386840
  C        21.1679846872        9.0985679389        6.5386316394
  H        23.0096477310       10.2360957873        6.5766223732
  H        21.5803652121       11.1778612895        5.9354286755
  C        20.3277826828        9.4184038694        7.8381290156
  H        21.6808780641        8.1880707407        6.8449553303
  H        20.4299250431        8.7775978769        5.8219044064
  C        19.1439325978       10.3973758444        7.6338946210
  H        20.9591536270        9.6484771921        8.6815536437
  H        20.0191001747        8.4530002527        8.1216440954
  C        17.8303710866        9.6650044099        7.3316976877
  H        19.0627061443       11.0149683346        8.5520431077
  H        19.3129543262       11.0465724178        6.7805805961
  C        16.6648006076       10.5412370960        7.0378579204
  H        17.5949118283        9.1652022035        8.1865918706
  H        18.0152263710        8.9232052313        6.4909779313
  C        17.0739303130       11.8380539740        6.3471664100
  C        16.1950336785       11.2368439714        8.2321918724
  C        15.5504493680        9.8069953869        6.2938395668
  C        16.7703514276       12.9504446815        7.1220869784
  C        17.6696114291       12.1433263179        5.1294539484
  C        16.2059008153       12.5837811174        8.3082432846
  C        15.6786800841       10.6483946256        9.3134559221
  H        15.9178735358        9.2800828910        5.3781684878
  H        15.1967803461        8.9759175477        6.9349077264
  C        14.4271281090       10.6374612564        5.6938039799
  S        17.1175437549       14.4102500472        6.3213930988
  C        17.6850089503       13.4893085859        4.9140966360
  H        17.9711112524       11.3053297973        4.4714367724
  C        15.8109944459       13.1960193129        9.4477515221
  H        15.6147205977        9.6368904624        9.3516550749
  C        15.3266429746       11.2084400583       10.4565502858
  H        14.8888779516       11.4300458213        5.0530008371
  H        13.9276429172       11.0688125482        6.5435806148
  C        13.4216921195        9.8462044557        4.8042146205
  C        18.1683969140       14.1378845462        3.6746050144
  C        15.4129277152       12.5409501036       10.5806716656
  H        15.8210915766       14.2928075072        9.3978463567
  C        14.9344357524       10.7865821179       11.7150514181
  H        12.4092074110       10.2500693191        4.7859593486
  H        13.2279591734        8.8834749062        5.2747604572
  C        13.9625494201        9.6650351351        3.3610407244
  C        18.1314077530       15.4815953078        3.3045074840
  C        18.8009770014       13.2812493597        2.6059507371
  C        15.0125131256       13.2471702124       11.7604679011
  C        14.7763064169       11.9032910672       12.5310986176
  S        14.6145589875        9.2473744091       12.4172202613
  H        14.5317448121        8.6589393851        3.3146460185
  H        14.7093032386       10.5167754811        3.3171201033
  C        13.0787878446        9.5352628376        2.1705178762
  N        17.7099672007       16.5301254283        4.1084190378
  C        18.3152669646       15.9410688767        2.0126954151
  C        19.1450423538       13.7343020917        1.3504240481
  H        19.0034532656       12.2580564716        2.7739554786
  C        13.7274963166       14.0320030348       11.6214318644
  C        16.1106659851       14.0821798407       12.3430204446
  C        14.5946960029       11.4749599635       13.8155122067
  C        14.4592126445       10.1434062059       14.0036047760
  H        12.2614405993        8.7763614591        2.3051003846
  H        12.7685538921       10.6164196905        2.1242506862
  C        13.8571855202        9.1081673020        0.9610631930
  S        17.6991383667       17.9484282421        3.3198701758
  N        18.1082400140       17.2942769558        1.8687090241
  C        18.7267988359       15.1074400638        0.9465951497
  H        19.7046587893       13.0696791100        0.6889540670
  H        13.9447092999       14.8413984228       10.8764371589
  H        13.3642733288       14.5584238340       12.4635877875
  C        12.5462210566       13.1273905515       11.1725070526
  H        16.4179177535       14.7201923153       11.4493104097
  H        15.6902474308       14.7266033328       13.1500963620
  C        17.3332730785       13.3122955483       12.8377187216
  H        14.5333579052       12.2333289727       14.5516896103
  C        14.0427894852        9.4915466412       15.2166998652
  H        13.4858765548        8.1587349066        0.7290058834
  H        14.9799076253        9.1524369911        1.0775932662
  C        13.8110406215        9.9930369256       -0.3005366827
  C        18.9094032122       15.7146245009       -0.3643562476
  H        12.7630529990       12.4470743297       10.2804085128
  H        12.2168567610       12.4672230878       11.9765197138
  C        11.4147962013       13.9564333749       10.6723370557
  H        17.8074695268       12.8404395212       12.0498780174
  H        17.0717153753       12.5117048568       13.5002876371
  C        18.3483322889       14.2061207340       13.4565645070
  C        13.7778093058        8.0573814322       15.3282726995
  C        13.8252043855       10.2686749890       16.4748994464
  H        14.0238804671       10.9525351719        0.0390037409
  H        14.6014799233        9.7134193039       -0.9560530922
  C        12.4622577000        9.8159793712       -1.0339093179
  H        18.7039128552       16.7476674648       -0.3265817100
  C        19.2079394239       15.2589866405       -1.6407352983
  H        11.8602829008       14.6186944781        9.9211168515
  H        10.9565117615       14.5115636405       11.5524539898
  C        10.2444269986       13.1687434147       10.1493249336
  H        18.4319583006       15.1461277687       12.9192883582
  H        18.0961697180       14.4436073003       14.4541408617
  C        19.7565591912       13.5904464736       13.5558734187
  N        13.8218302269        7.0953743858       14.2606455097
  C        13.5037253086        7.4323038626       16.5116982339
  C        13.3686367290        9.5776715952       17.6314958525
  H        14.0079535887       11.3166885759       16.5322222718
  H        11.6973666658       10.4721322618       -0.5985328892
  H        12.1167348468        8.8146897062       -0.9374409123
  H        12.5141552010       10.0005613446       -2.1123199834
  S        19.5298150454       13.6580160196       -2.1589967289
  C        19.3042167691       16.2350131916       -2.7186002527
  H        10.5345557739       12.6233041697        9.3510508015
  H         9.8221087869       12.4744652143       10.8728594390
  C         9.2348888163       14.1259987852        9.4277553780
  H        19.9788544534       12.9073075405       12.7843398325
  H        19.8281493704       13.0455208677       14.4979134662
  C        20.8949951738       14.5593350545       13.5182959668
  S        13.6086552736        5.6111344633       14.8152422151
  N        13.5308820120        6.0505704899       16.3987745729
  C        13.2507935002        8.0661383102       17.7029001018
  H        13.2552048805       10.1428311964       18.5890937255
  C        19.8420559846       14.3605913014       -3.7590968956
  N        19.7701605830       15.6568666101       -3.8575682971
  O        19.1232413988       17.4297133054       -2.5031697002
  H         8.9552893864       14.8464418634       10.2470825512
  H         9.7100589572       14.5724788838        8.5723772103
  C         8.0087454650       13.3485841759        8.8976319756
  H        21.7813933751       13.8922121295       13.4637681530
  H        21.0342265472       14.9737395853       12.4961141245
  C        20.9903003455       15.5651097110       14.6132958748
  C        12.9745772256        7.2994010407       18.8902460267
  S        20.5260941568       13.4210025410       -5.0431778620
  C        19.9216291375       16.3013903004       -5.1415872212
  H         8.1043455154       13.2619443595        7.8165825571
  H         7.9660478355       12.3799397168        9.3583777799
  C         6.6925482079       14.1138763353        9.1027392383
  H        21.3410204588       15.0499141487       15.5314910209
  H        20.0605053382       16.0293458959       14.9094609132
  C        22.0270476006       16.5955474340       14.1681995178
  H        13.1393085357        6.2081311811       18.7766261121
  C        12.5794890493        7.5773158237       20.1589042937
  H        20.6696880878       15.8106372238       -5.8099569067
  H        20.2953096411       17.2813548462       -5.0168965667
  C        18.5950475586       16.3973605436       -5.7697721000
  H         6.0474978823       14.2028001432        8.2131810878
  H         6.8242150116       15.1379052207        9.5288906665
  C         5.8702001912       13.3390950724       10.0705778759
  H        22.9850766433       16.2090331047       13.8910817880
  H        21.6878412087       17.2376859730       13.3935873044
  C        22.1805068451       17.6616316379       15.2372147461
  S        12.0472254208        9.1360466700       20.7218702274
  C        12.4715184478        6.5244475631       21.1068006194
  H        18.6845755691       16.4038058286       -6.9235251259
  H        17.9281726719       17.1054273883       -5.4346321338
  H        18.0667945325       15.5150513876       -5.6661596827
  H         5.2299884342       12.6682456006        9.5969412454
  H         6.3488150796       12.7242454514       10.8320861303
  H         5.1973078218       14.0848268075       10.4031922130
  H        21.3143463498       18.1395934570       15.6689122098
  H        22.7315208348       17.2485122724       16.0260502551
  H        22.6856615183       18.4667238306       14.7903936156
  C        11.9708700914        8.3533996169       22.2715456855
  N        12.0386264479        7.0111080921       22.2529305340
  O        12.8914567153        5.3357208113       20.9116978265
  S        11.3731393894        9.0872246481       23.7864858323
  C        11.7730926374        6.1359141499       23.4009478991
  H        11.4262266088        5.1322228330       22.9768191367
  H        11.1374747402        6.5547314775       24.1276333631
  C        13.0316847801        5.8830513507       24.1960234647
  H        12.7871208080        5.4368990424       25.1596699816
  H        13.6704806186        6.7405216737       24.3074029302
  H        13.5676979567        5.2138606350       23.6058706410
