352
 i =    93000, time =    93000.000, E =        25.2179352327
  H        10.5211675960        7.2704759735       31.8712539957
  C        11.4734529846        6.6530936974       31.7592726450
  H        12.3124804637        7.3729579974       31.8004430985
  C        11.6502175562        5.8233083381       30.4379545552
  C        11.7977733562        5.6901308707       32.8909594755
  C        10.3642929257        5.0263309860       30.0457100130
  H        12.0254092137        6.4361452510       29.6285535773
  H        12.4380431792        5.0581632954       30.5828672946
  H        12.8716142504        5.4405361236       32.9472379794
  H        11.5683179026        6.0324851953       33.9566766686
  H        11.2376148932        4.7514199100       32.8560304433
  C         9.5368099912        5.6689085153       28.9900958314
  H         9.8075333300        4.8909806905       30.9639619139
  H        10.7129463686        4.0437782863       29.7109158501
  C        10.2844150425        5.6814769061       27.6616916678
  H         8.5589914700        5.0895636214       28.9269018154
  H         9.3749983927        6.6142126238       29.3661277693
  C         9.3681848463        4.9468223198       26.6397421100
  H        11.2988741012        5.3369512666       27.7071192482
  H        10.2186583310        6.6950091138       27.3397024876
  C         8.1767134130        5.7420063900       26.1197273182
  H         9.8832373186        4.5844041444       25.8083481157
  H         9.0890167124        4.0935558998       27.2129496206
  C         7.1497920883        4.9691953983       25.2315192833
  H         7.5480980594        6.0654475266       26.9091362586
  H         8.4472688475        6.6878755932       25.6266552463
  C         6.7714903639        3.6001140761       25.9148862701
  C         7.6788999819        4.2319694663       24.1006952326
  C         5.9342617996        5.8547466378       24.7983473832
  C         7.1270689756        2.4968543019       25.1599704939
  C         6.3039134582        3.2507104801       27.2217490638
  C         7.6853589520        2.8985603055       23.9636068381
  C         8.2141184271        4.9520564338       23.0405126932
  H         5.4693216218        5.3393622863       24.0450478254
  H         6.2522715096        6.8150858970       24.4419178278
  C         4.9010819427        6.0964754681       25.9562981034
  S         6.8367538847        1.0346039249       26.0874964468
  C         6.2974265224        1.9163936319       27.4335434691
  H         6.0269048620        4.0089019703       27.8888485359
  C         8.2062527003        2.3032621175       22.8623361350
  H         8.2619545852        6.0384428993       23.1703523070
  C         8.6718645343        4.3816695896       21.8555037733
  H         4.8074597334        5.1851301907       26.5811082664
  H         5.2337575531        6.8612666529       26.6442737851
  C         3.4625277095        6.4434475329       25.5654880990
  C         5.8437272285        1.2569668768       28.6768335900
  C         8.7504199574        3.0029131893       21.7799817148
  H         8.0656731993        1.2557197000       22.9241221327
  C         9.1847551137        4.8363546792       20.6678686749
  H         3.2010206063        5.7587663917       24.8276141851
  H         3.4016410071        7.4886015015       25.1179270359
  C         2.5690376874        6.3787211709       26.7360859977
  C         5.9067028430       -0.1668248448       28.8698009171
  C         5.3750026059        2.1224305304       29.8209758511
  C         9.3327668460        2.4059236650       20.5715744110
  C         9.5343154361        3.7681471861       19.8607717645
  S         9.4704970505        6.3568415587       19.9184020252
  H         1.6473747303        6.8405220333       26.5154825577
  H         3.0871142330        6.9798155520       27.5404002723
  C         2.2766216147        5.0549539176       27.2868388224
  N         6.2980390266       -1.2167284833       28.0203411519
  C         5.5968313474       -0.7366744304       30.1028958659
  C         5.2582615969        1.4994457173       31.0716181333
  H         5.2851918484        3.1615892099       29.7798634531
  C         8.2276483348        1.5478527866       19.8293777938
  C        10.6826137612        1.6842590488       20.8522640974
  C        10.0447059757        4.1714600088       18.6132642806
  C        10.0462442069        5.5415013266       18.4936829478
  H         2.0235042998        4.3436689872       26.5100492414
  H         3.0260002197        4.6806383204       27.9506534974
  C         1.0027455616        5.0669755134       28.0693833037
  S         6.3389187842       -2.6819628909       28.7865644032
  N         5.6559000849       -2.1356168991       30.1609187201
  C         5.2801976501        0.0447921824       31.2834115500
  H         4.9309587416        2.0958701948       31.8656436357
  H         8.1732853322        0.5990729887       20.2839882922
  H         8.5106985603        1.4500545323       18.8451193211
  C         6.7932939614        2.1999905325       19.7985167816
  H        10.9633315977        1.1193860245       19.9533365154
  H        10.5428074744        0.9156992993       21.6455941648
  C        11.8830831711        2.5538207578       21.3080313822
  H        10.3303629426        3.4239758448       17.9131637769
  C        10.4238186516        6.3124211725       17.2544686021
  H         0.6820171851        4.0381352243       28.2625673632
  H         0.2411646816        5.6037147672       27.4644741501
  C         1.1084120930        5.8993882451       29.3736742388
  C         5.1156325798       -0.5688414165       32.5396414469
  H         6.9702177382        3.3216898730       19.7093581767
  H         6.1889673929        1.9499851069       20.5776970591
  C         6.0315725825        1.8389660572       18.4804956425
  H        11.7357429506        3.0155517435       22.2497858415
  H        12.0197816510        3.3889359369       20.6091277187
  C        13.1598140647        1.6991863883       21.1569708549
  C        10.4574245590        7.7182372152       17.0846457613
  C        10.5883544689        5.5234803463       15.9483727466
  H         1.8721956935        6.5953429975       29.2144081849
  H         0.1377902956        6.4413454571       29.5293530739
  C         1.4916261752        5.1203434093       30.6926512168
  H         5.1850490939       -1.6296513986       32.6310800073
  C         4.8280297911       -0.0618602919       33.7559916463
  H         6.3998097922        0.8560749017       18.0722446743
  H         6.1469752857        2.5735301123       17.6557690081
  C         4.5302743929        1.6135899028       18.7998840649
  H        13.0995403401        0.6703875262       21.2839331432
  H        13.3527502933        1.7723133711       20.0378954094
  C        14.4146825236        2.3606077922       21.8689258090
  N        10.1820181303        8.6110988794       18.1253409546
  C        10.6912282203        8.3812547738       15.8970991381
  C        10.8329368386        6.2667671564       14.7673198019
  H        10.4871570841        4.4223815986       15.8927870686
  H         1.8518429452        5.8724500708       31.4010025921
  H         0.7522100956        4.6595623178       31.2884034418
  H         2.3058116703        4.4252074745       30.4988369746
  S         4.6692709576        1.5641571262       34.2291607020
  C         4.8512778688       -1.0775066511       34.8791226345
  H         4.2638720852        2.4178428175       19.4895862004
  H         4.0864745711        1.7392305649       17.8201727161
  C         4.1855886781        0.3394837102       19.5508551808
  H        14.2797533946        3.3277320211       22.2476915296
  H        15.2098647151        2.4050224104       21.1987166090
  C        15.0450028373        1.6597388050       23.0269958383
  S        10.2355110739       10.1081890436       17.5230782143
  N        10.5772045806        9.7328291013       15.9728468846
  C        10.9731820578        7.7100055052       14.7027037961
  H        10.8290968833        5.6713728970       13.8550062505
  C         4.4636088958        0.8998278057       35.9063136500
  N         4.6243309641       -0.3816397579       36.0192624391
  O         5.2323046339       -2.2948372601       34.7463346007
  H         3.2042668220        0.3610994449       20.0449688280
  H         4.7957896299        0.0153748197       20.3383000022
  C         4.0984761507       -0.9277806997       18.5827239489
  H        14.1970558767        1.3417594564       23.6215875955
  H        15.4285230516        0.7250550997       22.5226479716
  C        16.1057580629        2.4037004312       23.7468083522
  C        11.0482947725        8.4380729093       13.5386977747
  S         4.1268709380        1.9469269663       37.3075521835
  C         4.3975645887       -1.0497413585       37.2932143496
  H         4.7653438421       -0.7777401671       17.7578674467
  H         4.5620326294       -1.7819942443       19.0205399723
  C         2.6799682727       -1.2846492769       18.1262034572
  H        15.7354353777        3.1991804211       24.4063163926
  H        16.5877906012        3.0235393432       22.9632742946
  C        17.2424455246        1.4920055047       24.2806285857
  H        10.6356316619        9.4025719084       13.6236057046
  C        11.4585549022        8.0844196731       12.2534539254
  H         3.7072226829       -0.4903015201       37.9853743192
  H         3.8304596240       -1.9904012490       37.1193071744
  C         5.7471928197       -1.2981216719       38.0127143322
  H         2.0688108749       -0.3575583863       18.1938254712
  H         2.3086637077       -2.0491253223       18.9224209860
  C         2.6890642903       -1.8660475301       16.6436390887
  H        17.7639278668        1.9119212813       25.1305601057
  H        16.8155244262        0.6090227440       24.6364261476
  C        18.2026116097        1.2690744373       23.2669543358
  S        12.0846350230        6.6356579665       11.7316152993
  C        11.4222267835        9.1458906112       11.2317921941
  H         6.5719174529       -1.5168273740       37.3601294269
  H         5.8735582917       -0.3752126341       38.5235501940
  H         5.6775609723       -2.1182501547       38.7294067591
  H         3.2540236123       -2.8678033259       16.6004127315
  H         3.1629219535       -1.1682298453       15.9857603846
  H         1.6491195426       -2.1141004414       16.4302202171
  H        19.0353861546        0.6973863442       23.6608616599
  H        18.6380369783        2.2049987207       23.0160851728
  H        17.8767555622        0.7823604091       22.3815422204
  C        12.4825077920        7.4499616830       10.2017439879
  N        12.1899532426        8.7567813337       10.2224515273
  O        10.8528987436       10.2449805397       11.3798811186
  S        13.2997372103        6.8610688318        8.8291777724
  C        12.3149007810        9.6380962002        9.0073845525
  H        12.7113866230       10.5503114774        9.2731803294
  H        13.1328307817        9.3110114321        8.3607177534
  C        11.0936706272        9.5151559263        8.1406603700
  H        11.1885992991       10.1288171664        7.2788102805
  H        10.8887987419        8.5245794486        7.7362311505
  H        10.2323044929        9.9105185042        8.6281770795
  H        21.1991728814       10.7021496229        3.0709251540
  C        22.1100648975       10.0707998721        3.2370990365
  H        21.7159226000        9.0856016350        3.4764427850
  C        23.0154076109       10.3300381251        4.4143611510
  C        22.8569534841        9.9213246066        1.9104388945
  C        22.3146713433       10.5301600778        5.7283008169
  H        23.8708312648        9.6371612256        4.5606541839
  H        23.5157595182       11.2065463969        4.1852626637
  H        23.0708587031        8.8490942810        1.6392206539
  H        23.7465224418       10.5137182614        1.7259636246
  H        22.1387219805       10.3050624396        1.1915489603
  C        21.9642942003        9.1976613343        6.3194015077
  H        22.9219040636       11.0731111301        6.3844335263
  H        21.3656908485       11.1230026817        5.5325929831
  C        20.6931544817        9.1951913626        7.2131221550
  H        22.8398887662        8.9080797806        6.8244881941
  H        21.7420681966        8.4884251600        5.5480230026
  C        19.3495712925        9.3675773836        6.5002484521
  H        20.8437494256       10.0341293893        7.9295542314
  H        20.5882760701        8.3219354665        7.8599783203
  C        18.2792906272        9.5895959803        7.5424626527
  H        19.4319654036       10.1490377066        5.7631843260
  H        19.0861042004        8.4757091052        5.9192787755
  C        17.1315561791       10.4604710365        7.0573109226
  H        18.7428693974       10.0965320674        8.3317697816
  H        18.0586393005        8.6623821306        7.9684653066
  C        17.5106033329       11.7788210898        6.3709341244
  C        16.6712950069       11.2655084402        8.3021700616
  C        15.9253619842        9.7316474026        6.4477344399
  C        17.2867548682       12.9105559401        7.1523426651
  C        17.8718228319       12.1164137931        5.0409250994
  C        16.7423864681       12.6138990441        8.3922199389
  C        16.0423135961       10.6263506825        9.3800162525
  H        16.2302936481        9.0801740216        5.6440818225
  H        15.6043093413        8.9226482286        7.0948140583
  C        14.7890969782       10.7278023517        6.0913546551
  S        17.6883735884       14.3803765197        6.3882126119
  C        17.9314285954       13.4867781295        4.8872625172
  H        18.0201317197       11.3197533024        4.3549812796
  C        16.3881890920       13.2446276304        9.5530282142
  H        15.9676460167        9.5249056031        9.3183026023
  C        15.6605798491       11.2466541980       10.5577307821
  H        15.1603742742       11.5362232616        5.4342435944
  H        14.4898141472       11.1496536540        6.9881679517
  C        13.6846528180        9.9753263828        5.3783503380
  C        18.0665576705       14.2012794336        3.6420876379
  C        15.8859032032       12.5256586222       10.7184959518
  H        16.4066838795       14.3651762623        9.5921454648
  C        15.0987892053       10.8500021281       11.7902506429
  H        12.7233179520       10.5475266935        5.4120302125
  H        13.4767080449        9.0621983760        5.9527066149
  C        14.1271569488        9.7187998255        3.9371028289
  C        18.1149000074       15.5998763190        3.4717415828
  C        18.5437473418       13.3786468482        2.5234542817
  C        15.5667186842       13.2893728960       11.9538269508
  C        15.0923759517       11.9806609699       12.6257032430
  S        14.6812042105        9.3665192778       12.6541763452
  H        14.6951721795        8.8485321109        3.7891443639
  H        14.7522328287       10.5607119574        3.6443745177
  C        12.9691797204        9.5719215160        2.8799203156
  N        17.8236822883       16.6132874680        4.4426473272
  C        18.4716031436       16.1839073164        2.2383080538
  C        18.8667990981       13.9871797830        1.3274286358
  H        18.6852372500       12.2624780013        2.5441608166
  C        14.4137028153       14.3040069534       11.7191404752
  C        16.8321200583       13.8701156349       12.7231900145
  C        14.5699036779       11.6209234178       13.8933761249
  C        14.3509986921       10.3154777657       14.1160889023
  H        12.4206456236        8.6344583788        2.7316681900
  H        12.1808570236       10.2579159218        3.1152137030
  C        13.4594316634       10.0102717265        1.4571526532
  S        18.0694850170       18.0755207169        3.8076995751
  N        18.2549369491       17.6165373891        2.2590878134
  C        18.8127566004       15.4441579935        1.0494113533
  H        19.1086406553       13.3296154403        0.4672298211
  H        14.9144835724       15.2374237235       11.2194568609
  H        13.9715893384       14.6241023250       12.6692825786
  C        13.2080589786       13.9787595745       10.8374619389
  H        17.3904924856       14.6177244081       12.1324323987
  H        16.4008482534       14.3067090722       13.5689321232
  C        17.8506263539       12.7786001304       13.2105929699
  H        14.4835586592       12.4608550361       14.5897052005
  C        14.0582933218        9.5390406888       15.3628282182
  H        14.1845930478        9.2946659402        1.0356534776
  H        13.9670045139       11.0189538114        1.4917779182
  C        12.2700582626        9.8783160244        0.5067842140
  C        19.0154040614       16.0707018790       -0.2019124013
  H        13.1559887728       14.7490016611       10.0984305820
  H        13.4482079958       13.0892609308       10.2787293680
  C        11.8862767554       13.7591222694       11.5298042031
  H        18.3144464224       12.3062311438       12.3207926081
  H        17.3431632764       12.0231003836       13.8768905471
  C        18.9474984348       13.4861078458       13.9824149195
  C        14.1527912268        8.0961727465       15.4946685624
  C        13.6653572559       10.2817729461       16.6088362779
  H        11.7633609035        8.8940107935        0.6500937806
  H        11.5742017330       10.5844474825        0.9024944915
  C        12.7347500971       10.2386889504       -0.8393039857
  H        18.7683559783       17.1125146420       -0.1719584596
  C        19.3377811961       15.6005518286       -1.4439120897
  H        11.7951510887       14.5416545486       12.2778135398
  H        11.8529992581       12.8965336068       12.2161581907
  C        10.6366347418       13.7639493312       10.5538907007
  H        18.5706475023       14.4264190085       14.3974303822
  H        19.1330962160       12.9008063189       14.8940897894
  C        20.2043052001       13.7615739995       13.2311680944
  N        14.5418153279        7.1255600258       14.4975105346
  C        13.9527913307        7.4733433105       16.7619156550
  C        13.5466328275        9.6261150194       17.8364894905
  H        13.6153563119       11.3789718676       16.7199653338
  H        12.9385258721       11.3071094186       -0.9707878305
  H        12.0358890832        9.8763948029       -1.6143183210
  H        13.6626777469        9.7197083200       -1.0378338127
  S        19.7622214972       14.0111208057       -1.8695037689
  C        19.3834174866       16.5334472199       -2.5980188532
  H        10.7826664862       14.5645252219        9.8109273339
  H        10.7556362860       12.8409018775       10.1397865433
  C         9.3127062266       13.8297785736       11.3578700531
  H        19.9409076892       14.4697233914       12.4127027146
  H        20.5408739521       12.8561511066       12.7983574866
  C        21.4419868326       14.0998227251       14.1454198418
  S        14.4550560014        5.6994123639       15.2217127674
  N        13.9503869232        6.0400893410       16.7089213190
  C        13.6571729471        8.1265094341       17.9861744226
  H        13.3677271804       10.1726141348       18.7478948367
  C        20.0951324531       14.6166571591       -3.4996230874
  N        19.8087290677       15.9271927048       -3.7155768009
  O        18.8993330987       17.6433375850       -2.6187752482
  H         8.9879965234       12.8733076996       11.6952233942
  H         9.5106663767       14.3459125246       12.2265417250
  C         8.1673424912       14.3446900359       10.4872218502
  H        21.1520186054       14.3327818574       15.1335659243
  H        22.1556605493       13.3314600935       14.0683375034
  C        22.1762695306       15.3436836373       13.5425061613
  C        13.5483880328        7.4752666616       19.2824463845
  S        20.5612316491       13.6410757910       -4.8649514739
  C        19.9931783289       16.6163096075       -5.0344457930
  H         7.5657867574       14.9852956893       11.2558778828
  H         8.5458982025       15.0515934100        9.6634662889
  C         7.2452361985       13.1160044355        9.8990543353
  H        21.9595008409       15.3608512027       12.4510094176
  H        23.2996429831       15.3440096696       13.5967299855
  C        21.6092054259       16.5645809696       14.1765944689
  H        13.7651666323        6.4730656741       19.2607243804
  C        12.8402958219        7.8116371833       20.4241683935
  H        20.7016731424       16.1228296113       -5.6630227641
  H        20.3469433984       17.6364527059       -4.8642270357
  C        18.6806908762       16.7862103495       -5.7157627682
  H         7.0619138330       12.3866787623       10.6861760222
  H         7.7347178919       12.6166888440        9.0539801871
  C         5.9570005279       13.7190289378        9.3244449582
  H        21.8046458320       17.4053294738       13.5280765670
  H        20.5385224013       16.4791469426       14.2735009310
  C        22.0602987335       16.7113352006       15.6714239508
  S        11.9624978722        9.2540486286       20.8288137083
  C        12.7342203875        6.6841539276       21.4012600354
  H        18.1497337197       17.6503311243       -5.3224619446
  H        18.0970169831       15.9269367652       -5.5561887692
  H        18.8924657423       16.8961656439       -6.7444431415
  H         5.3573320267       12.9543059721        8.8883154568
  H         5.3642436160       14.1213133604       10.0956384058
  H         6.2006174383       14.4351786023        8.5536680520
  H        23.1194339142       16.5342711827       15.8625415515
  H        21.6494804076       17.6943752968       16.0196948925
  H        21.5915538988       16.0455161973       16.3872636157
  C        11.5054981574        8.3969439527       22.2776635845
  N        12.0730416239        7.1521750588       22.4655246115
  O        13.3448364115        5.5897372270       21.3216801691
  S        10.6684753872        9.1559219951       23.5971831736
  C        11.6819183668        6.2649575947       23.6326273495
  H        11.6947341247        5.2421366591       23.2960603268
  H        10.6501179509        6.4631067458       23.7246896199
  C        12.4472984767        6.6042626041       24.9253149076
  H        13.0600791935        5.7977812980       25.2630249476
  H        11.7465073272        6.7251623116       25.7179793454
  H        12.9717694219        7.5461515491       24.9198979820
