352
 i =    44500, time =    44500.000, E =        25.4287957504
  H        11.1776861360        7.3916742905       32.1809603089
  C        11.0380906196        6.3756248355       32.0843193747
  H        12.0245806220        5.9576482040       31.9377219374
  C        10.1394295980        6.1689378804       30.9221223091
  C        10.5407457855        5.8451336787       33.4287199931
  C        10.9515298768        5.9039137030       29.6937491309
  H         9.4508068785        5.3290975121       31.1818042803
  H         9.4878565479        6.9623063728       30.7154172433
  H        11.2471310454        6.2022541862       34.1841629910
  H         9.6486876154        6.3530106517       33.5796424319
  H        10.4078152260        4.7672856300       33.4585622282
  C         9.9439502070        5.7352878462       28.5756913255
  H        11.6499560597        5.0938797916       29.9410841949
  H        11.6123746332        6.7931234061       29.5752474488
  C        10.5385884544        5.8031223963       27.1623639431
  H         9.5421528535        4.7248353967       28.7468670907
  H         9.1248378133        6.3626731302       28.5741961104
  C         9.6398472470        5.0739103925       26.1982897808
  H        11.5323137568        5.4148556077       27.1676289720
  H        10.5534714377        6.8227459743       26.9588136885
  C         8.2954269140        5.8563214840       25.8004406964
  H        10.2173409651        5.0099339784       25.2850919437
  H         9.4679195657        3.9907607101       26.5159853773
  C         7.1747016159        5.0254739148       25.1303672725
  H         7.8628595065        6.3721824058       26.6464981187
  H         8.6063613908        6.6651465582       25.1603689267
  C         6.9570789789        3.6811345820       25.8515897225
  C         7.7437287956        4.2244302116       23.9593269848
  C         5.9697882289        5.8001175176       24.7754726532
  C         7.2436312774        2.5767746284       25.1126152467
  C         6.3658478503        3.3793091539       27.0715821512
  C         7.7896345609        2.8543660561       23.9281774131
  C         8.3378623499        4.8446205200       22.8170333860
  H         6.2816567678        6.5124778287       24.0262627112
  H         5.7079005506        6.4212273316       25.6180575132
  C         4.7292483226        5.0508823914       24.1974980840
  S         6.8201008877        1.1617919456       25.8718765323
  C         6.2374674554        2.0319524798       27.2942643140
  H         5.9471547525        4.0766886332       27.7366747718
  C         8.1360877426        2.2470224973       22.7845712460
  H         8.4786969418        5.9183995920       22.7066720156
  C         8.6108922465        4.2417931828       21.6377602312
  H         4.8966549197        4.6048103191       23.2223438228
  H         4.5151180415        4.2519178616       24.9149391740
  C         3.5646807913        6.0517440400       24.0228199668
  C         5.7238958330        1.3463642655       28.5961813043
  C         8.4925546054        2.8440517095       21.5389878568
  H         8.1033130019        1.1188117395       22.7516143072
  C         9.0009580858        4.5940147539       20.3641620367
  H         2.8781473924        5.8125004941       23.2324072571
  H         4.0439349196        6.9661681992       23.6261490046
  C         2.7775266911        6.2843028857       25.3618700363
  C         5.7088197092       -0.0255402718       28.8857431374
  C         5.5232259540        2.2382955522       29.7701855195
  C         8.7775883847        2.1767275044       20.2447265531
  C         9.1178224907        3.4943715836       19.5129631496
  S         9.2906193137        6.0702652572       19.6088777631
  H         2.1106823264        7.1090113219       25.1959918198
  H         3.5263726071        6.7382144602       26.0555707008
  C         1.9809555799        5.1754154630       25.9368296814
  N         5.8662697073       -1.0273292927       27.9493469915
  C         5.4905678664       -0.6301750546       30.0967613976
  C         5.2031632786        1.6760267887       30.9951854197
  H         5.5724131884        3.2757690070       29.7158622874
  C         7.5699735321        1.5225922055       19.5556155920
  C         9.9946618520        1.2497393194       20.3179462402
  C         9.3211564481        3.8583246081       18.1731726092
  C         9.5171671725        5.2074501251       18.0775073339
  H         1.3152975377        4.9488109106       25.1971583541
  H         2.6727194786        4.2975178827       26.0478610445
  C         1.1680007746        5.5143280085       27.2001480924
  S         5.7807437664       -2.5190911589       28.6265636158
  N         5.6378694491       -2.0187134975       30.1326826890
  C         5.3025112773        0.1914293886       31.2085264067
  H         5.1065196481        2.3194285493       31.8462083667
  H         7.1250693281        0.7982492354       20.2704791230
  H         8.0530160645        1.0566018814       18.7050683860
  C         6.4267285543        2.4850664626       19.1147387219
  H        10.2684490007        0.9300062247       19.3300249758
  H         9.7713473550        0.3729354194       20.8357792934
  C        11.1978070068        1.9571471605       20.9707799678
  H         9.4375670935        3.0758249438       17.4725461878
  C        10.0437877390        6.0156438800       16.8675768566
  H         0.4965308453        4.7159059763       27.3802079922
  H         0.5928561420        6.4745773394       27.2384252336
  C         2.1694111118        5.5160891905       28.3752144289
  C         5.2107301425       -0.4103320869       32.5369909462
  H         6.7621228725        3.3570071841       18.4388259325
  H         5.9972834481        2.9308415452       20.0010496443
  C         5.3143803217        1.6361138372       18.4846554688
  H        10.8865539688        2.2810330014       21.9653204849
  H        11.5393679021        2.8026291343       20.4434504230
  C        12.4073808332        1.0226182069       21.1208616161
  C        10.1399248392        7.4479050037       16.8403495303
  C        10.2197869248        5.3616191818       15.5480304982
  H         2.6032802770        4.5280342909       28.3478833184
  H         3.0156042222        6.1383619129       28.2672237353
  C         1.3788919779        5.6828037114       29.6514479917
  H         5.3421424812       -1.5013270896       32.5209287636
  C         4.8601484968        0.0409131304       33.7706901731
  H         4.8458269820        1.0340461395       19.2564033935
  H         5.7446226972        0.9570404627       17.8377428925
  C         4.3581561846        2.4719214406       17.5771092194
  H        12.4436832005        0.4649043613       22.0783557519
  H        12.5405562246        0.3742443065       20.2668249697
  C        13.7286123219        1.7820432894       21.0967625122
  N         9.9356483660        8.3663706000       17.8869829282
  C        10.3877926795        8.1801783079       15.7287077733
  C        10.3745329735        6.0947057337       14.3617025485
  H         9.9864624977        4.3215490243       15.5520381798
  H         0.7886540224        4.7635827203       29.7565073444
  H         1.9763764936        5.6446693373       30.4966836235
  H         0.8718029019        6.6029804777       29.6836323948
  S         4.6179614532        1.6973354418       34.2916527532
  C         4.7331815770       -1.0124453917       34.8791252679
  H         4.3537805651        3.4959003069       17.5743932661
  H         4.6728854077        2.2556556658       16.5647860230
  C         2.9228791728        1.9907609676       17.8285843563
  H        13.7875565297        2.4979504895       20.3176360510
  H        14.4876968963        1.1378769565       20.7573816036
  C        14.1188757750        2.3868005791       22.3678185623
  S        10.0500548626        9.8991940745       17.4250947817
  N        10.5683585125        9.6144358919       15.9352332942
  C        10.5327833582        7.5914215380       14.4533897079
  H        10.4170812058        5.4813686521       13.4245830799
  C         4.2527032656        0.9841815702       35.8863949260
  N         4.3412673436       -0.4115405832       36.0225699963
  O         4.8270825750       -2.2256174354       34.7317962130
  H         2.2206862257        2.7440616729       17.3793114617
  H         2.7296128286        2.0152974944       18.9014340712
  C         2.5819314946        0.7043579627       17.1907190161
  H        14.6656800115        3.3091783934       22.2062904988
  H        13.2342431429        2.6848713281       22.9952512059
  C        15.0195243776        1.4408599783       23.2617237404
  C        10.7894142891        8.4452192135       13.2822050495
  S         3.9086903321        1.9215714574       37.3532395289
  C         4.2311644356       -1.0396864810       37.3708792900
  H         1.8340007129        0.8327844714       16.4152956662
  H         3.4768049277        0.3978061440       16.6702390514
  C         2.1061031183       -0.4843721141       18.0826643759
  H        15.1626356825        0.4846726663       22.8384688323
  H        14.4784457525        1.2373111008       24.1626086692
  C        16.2848275810        2.0698555315       23.6823059910
  H        10.5159213879        9.4253199795       13.4821608485
  C        11.2296778405        8.1821766757       12.0063775755
  H         3.4626118616       -0.5090808214       37.9141450062
  H         3.9358781923       -2.0474640254       37.2390882339
  C         5.5127288211       -0.8950283661       38.2270354083
  H         1.0264478048       -0.2212759651       18.2026988916
  H         2.6096175237       -0.4357851638       19.0159225631
  C         2.2315972599       -1.7734475663       17.4311386081
  H        16.0313934214        3.0699781007       23.9436156527
  H        16.7332387535        1.5610270110       24.5300508714
  C        17.3587757622        2.0280769480       22.5691650433
  S        11.8367303029        6.7220195199       11.3303062502
  C        11.3497537175        9.3655489542       11.1068980334
  H         5.3394207805       -0.2886919662       39.1255909625
  H         6.0156984878       -1.8440777610       38.4674281405
  H         6.3418836692       -0.4846141899       37.7438811315
  H         3.2903524166       -1.8838851123       17.1581239726
  H         1.7034538398       -1.9393782190       16.5237339069
  H         1.8396184588       -2.5249925466       18.1304129196
  H        17.7205878595        1.0218691944       22.4325926298
  H        18.2550760324        2.6052659761       22.8231767437
  H        17.0489803658        2.4376705151       21.6473982470
  C        12.1900292458        7.6801977205        9.9036067345
  N        11.9657139652        9.0249607453        9.9361179348
  O        10.8714493759       10.4848791202       11.4004344792
  S        13.2832689975        7.1911282959        8.6079775593
  C        12.0815194213       10.0106674049        8.8694696999
  H        12.1590527151       10.9647811060        9.1811236638
  H        13.0677375010        9.9344325581        8.3688489017
  C        10.9194758222       10.0081834936        7.7787472322
  H        10.7844163360        9.0938347959        7.1159623671
  H         9.9631762342       10.1307809663        8.2736411267
  H        10.9844543071       10.8746130006        7.0693364983
  H        21.1340137584       11.3689611666        3.6692626147
  C        21.9113649236       10.6629349293        3.6309601710
  H        21.4581758166        9.6850175381        3.7528830076
  C        22.9531312274       10.8791074677        4.8025274649
  C        22.4192857211       10.5095056384        2.1979414222
  C        22.0785448759       10.8337581979        6.0583225955
  H        23.6110693664       10.0306442387        4.8143262643
  H        23.4295201902       11.8447572568        4.8093250209
  H        22.9755587466        9.5909609968        2.0435702893
  H        23.0350355554       11.3768850436        1.8763870894
  H        21.6414578328       10.5808638920        1.4582537268
  C        21.2415183234        9.5352552467        6.3782716800
  H        22.7358430599       10.9260628316        6.9663899414
  H        21.4538711381       11.7372616337        6.0164080666
  C        20.6121815929        9.5055717365        7.8167028075
  H        21.9315020435        8.7919217474        6.0492195663
  H        20.3613934387        9.5308211124        5.7255505882
  C        19.4074303171       10.4394507631        7.8724019381
  H        21.3794685352        9.9441253580        8.4994694936
  H        20.3242185263        8.4586257828        8.1051578834
  C        18.1492657581        9.9399141479        7.1868303338
  H        19.1846308933       10.6610434975        8.9414941573
  H        19.7333636969       11.4029339084        7.3560070177
  C        16.9882005094       10.8867187322        6.8906123521
  H        17.8727811410        9.1892074306        7.9739433521
  H        18.3500619165        9.3361968429        6.2851343232
  C        17.2876171819       12.2703581574        6.3602281848
  C        16.4412164168       11.5135995823        8.1533879543
  C        15.8344343871       10.3015394933        6.0716949791
  C        16.8444256202       13.3167112601        7.1377697269
  C        17.8659568914       12.7452339597        5.1495107811
  C        16.4746464860       12.8367744411        8.3412866977
  C        15.8344272185       10.8226523711        9.1993492369
  H        16.3445904977        9.9813663742        5.1262029342
  H        15.4688291210        9.4473194168        6.5739870984
  C        14.6099064066       11.2201585819        5.9209171723
  S        17.2175591844       14.8713603801        6.4159583096
  C        17.7965476479       14.1184791946        4.9863941520
  H        18.4029859177       12.0362767715        4.5101441879
  C        15.9191793545       13.3750410104        9.4566407180
  H        15.9712804624        9.6992539291        9.0759179252
  C        15.2831411657       11.3333573447       10.3297143202
  H        15.0087328943       12.1509534362        5.5713617948
  H        14.2170751171       11.3991615467        6.9141762233
  C        13.5827959647       10.4932421102        4.9991159491
  C        18.2008791632       14.9126120881        3.7337302015
  C        15.3408029563       12.6647790570       10.5047069601
  H        15.9638012851       14.4205136031        9.5311197798
  C        14.8224588755       10.8774732004       11.5300094548
  H        12.6117980784       10.9810728058        5.1399689559
  H        13.4865776104        9.4687277055        5.3811058542
  C        13.9698221215       10.5972433657        3.5081526525
  C        18.0226546291       16.2995377279        3.4765402514
  C        18.7582897042       14.0804485771        2.6479607748
  C        14.9379655690       13.3081647633       11.7889261215
  C        14.6536264651       11.9258266231       12.4294084563
  S        14.5462344219        9.2940592962       12.2371012629
  H        14.8286023155        9.9284547418        3.3178562080
  H        14.3951973945       11.5616767374        3.3249227482
  C        12.6906111017       10.3792721461        2.6945185895
  N        17.5674720147       17.2423727856        4.4565062026
  C        18.4028063872       16.8685463628        2.3131078273
  C        18.9228080835       14.6434793535        1.3750864730
  H        18.9541583256       13.0124609101        2.7223457853
  C        13.7708373135       14.2667045814       11.5917949941
  C        16.1404109938       14.0292281384       12.3765816542
  C        14.3621177046       11.4834013693       13.7102765527
  C        14.2228344829       10.0990406977       13.7622872051
  H        12.0830044119        9.6469893241        3.2476407503
  H        12.0572182293       11.3034595320        2.6312307492
  C        12.9167288181        9.8941302654        1.2392331227
  S        17.5146470157       18.6722835524        3.7613973820
  N        18.1205568554       18.2461974839        2.2646621439
  C        18.8473750180       16.1462596499        1.2332531021
  H        19.2494851890       13.9468101307        0.6271036177
  H        14.1135812967       14.8751023416       10.7652011210
  H        13.6449222298       14.9905250314       12.3679911084
  C        12.4955190269       13.5739207899       11.1693385541
  H        16.5035740053       14.7985255357       11.7313010030
  H        15.7200519028       14.6539391721       13.1236147484
  C        17.1880275971       13.0581967019       12.8408269086
  H        14.0713245312       12.2066560103       14.4646276027
  C        13.7938441089        9.3591749191       14.9812344504
  H        11.9675347604        9.5336007360        0.7019374372
  H        13.4441129103        8.9794763213        1.0943590125
  C        13.3923185629       11.0179996207        0.3053458203
  C        19.0922206793       16.8476505523       -0.0604617197
  H        12.6609580936       12.9595862216       10.1681858276
  H        12.1314379935       12.9541295150       11.9599432613
  C        11.3090019080       14.5131162517       11.0195642994
  H        17.6387467419       12.6288234665       11.9670031860
  H        16.8074948677       12.2182019419       13.4880128453
  C        18.2470550272       13.8492919589       13.5622814966
  C        13.8011373976        7.9340683331       15.0833409394
  C        13.7455475055       10.0791622748       16.2986974831
  H        13.3475832420       11.9560971683        0.8795600629
  H        14.4709296859       10.9313714922        0.0016412020
  C        12.6090041984       11.0556229985       -1.0133356752
  H        18.8233291217       17.8794555418       -0.0436627555
  C        19.3467042992       16.4525048992       -1.3690864509
  H        11.3686938163       15.2351442181       10.2181146808
  H        11.1069638547       14.8923059473       12.0358844299
  C        10.1501459397       13.5946424773       10.6527010802
  H        18.7842414777       14.3667926303       12.7945125147
  H        17.7466675548       14.4719890284       14.2930351891
  C        19.2176148414       13.0236007376       14.3160379314
  N        14.0863498553        6.9658122574       14.0396462766
  C        13.5897495399        7.2992558895       16.3067575125
  C        13.5085380558        9.4460497721       17.5111574856
  H        13.9122043106       11.1838119350       16.3443705417
  H        11.7077866396       11.6904108990       -0.9373491218
  H        12.3069357308       10.0837322865       -1.4307129066
  H        13.2213833929       11.5394191008       -1.6788372432
  S        19.5904458111       14.8052965457       -1.9311130293
  C        19.3522845131       17.4919312890       -2.3961704469
  H        10.5070043012       12.8706680242        9.9418610154
  H         9.7961425239       12.9611553881       11.4869916563
  C         8.9540696948       14.4264409101       10.0922445254
  H        19.3132328520       12.1822410850       13.6444921205
  H        18.7444610953       12.5116254963       15.2453369606
  C        20.6160639309       13.6540052120       14.3539246804
  S        14.0025160656        5.4544750682       14.6446564181
  N        13.6909917824        5.8743067246       16.1788090058
  C        13.2949237862        7.9486146624       17.5217557866
  H        13.3269701512       10.0698323406       18.3568803931
  C        19.9816654662       15.5501300770       -3.5068686668
  N        19.7055162524       16.8797047664       -3.5344984640
  O        19.0168443590       18.6404955300       -2.2528730425
  H         8.4872272981       15.0974491197       10.7884980091
  H         9.4030954691       15.2194941825        9.4968960618
  C         8.1202257763       13.7494624483        9.0036431242
  H        21.3714562079       13.0234225031       14.7533681191
  H        21.0028182077       13.7119681887       13.3071421102
  C        20.6485993805       15.0253676879       15.0196790495
  C        12.9643739336        7.1336927175       18.7270181158
  S        20.2775584659       14.6415671098       -5.0287286470
  C        19.6118291227       17.6072433200       -4.8070705265
  H         8.6208389693       13.9451367935        8.0421825818
  H         8.1093468800       12.6427816053        9.1073977366
  C         6.6791211091       14.2167841465        8.8511299734
  H        21.5425344035       14.9945561546       15.6875424983
  H        19.7639855202       15.1125382137       15.6097187682
  C        20.7605507117       16.1851465731       13.9809484898
  H        13.0413405644        6.0793372926       18.5753283236
  C        12.5883253374        7.4372499526       19.9857074214
  H        20.3121946869       17.1415850603       -5.4399339717
  H        20.2633722486       18.4769986344       -4.9338090735
  C        18.1742555027       17.6917630571       -5.2397423060
  H         6.1812395782       13.7894327248        8.0397442791
  H         6.7964847236       15.2504935264        8.5622212692
  C         5.7918912068       14.0809815463       10.0849832539
  H        21.7464050660       16.0925618137       13.4230636009
  H        20.0338848293       16.1668773398       13.1357915486
  C        20.5652674719       17.5932277301       14.5525408018
  S        12.2550352216        9.0031810730       20.5411716393
  C        12.5030124554        6.3329069929       20.9333596354
  H        18.0642732832       17.2965699376       -6.2105903536
  H        17.9022367389       18.7525359870       -5.3020735775
  H        17.4596884225       17.1867321599       -4.6156789571
  H         6.1189024946       14.7540386572       10.9086155548
  H         4.7792163952       14.4962566037        9.8707388541
  H         5.7429626292       13.0254778561       10.4067070854
  H        21.4893930542       17.9840827036       14.9180246673
  H        20.0751408855       18.2349191196       13.8777363185
  H        19.9750698391       17.4564121595       15.4534896774
  C        11.9461996477        8.1927267246       22.0497303280
  N        12.0561395482        6.8529894918       22.0724736300
  O        12.6812506413        5.0813177349       20.7167777473
  S        11.5233911347        8.8980870730       23.5949074414
  C        12.0943191194        5.9998363418       23.2333015637
  H        11.5258460863        5.0599162395       23.0486525732
  H        11.5406262367        6.4656336833       23.9495179199
  C        13.5055570862        5.7583799302       23.7301070829
  H        14.0422832643        6.6046264383       24.3145188616
  H        14.1559125792        5.4790654716       22.9275002527
  H        13.4403702264        4.9304981451       24.4426092336
