352
 i =    90100, time =    90100.000, E =        24.7362708269
  H         9.8703103275        7.0156605008       31.6165237558
  C        10.8923417973        6.9211687449       31.9517122522
  H        11.1332788453        7.9008342106       32.2720590020
  C        11.8790241518        6.4202675870       30.8893132296
  C        10.8451199190        6.0393770172       33.2357273740
  C        11.2678435477        5.2589846134       30.1044804516
  H        12.1786381671        7.2518769207       30.1990984953
  H        12.8531888087        6.1171675805       31.2599323720
  H         9.9122021890        6.1871221796       33.7645366886
  H        10.8061297447        4.9616006457       32.9707512369
  H        11.6109951926        6.2994556792       34.0001616558
  C        10.4142908292        5.7881900962       28.9884858155
  H        10.7045331714        4.5334634856       30.6827024157
  H        12.0229830545        4.6434956893       29.7231961640
  C        10.8476115854        5.6458488404       27.5603798224
  H         9.5194378392        5.1824745258       29.0246171103
  H        10.1746211005        6.8628260541       29.1643674800
  C         9.7880002512        4.8783733318       26.6285453600
  H        11.7947602305        5.1200898652       27.5206962915
  H        10.9876039885        6.6590137859       27.2116389169
  C         8.4889551445        5.6268779012       26.2194813783
  H        10.3068760196        4.4411743527       25.7950213274
  H         9.3844408079        3.9329996605       27.0659007064
  C         7.3936907871        4.7762434774       25.5069801703
  H         7.9205498151        5.9437597084       27.1260256416
  H         8.6709426414        6.4896024469       25.5946045563
  C         7.0832802823        3.4146360631       26.2527589714
  C         7.7867671784        4.0654965717       24.3356482101
  C         6.1572026326        5.6113588069       25.1236895698
  C         7.2733385516        2.3435668551       25.4139597077
  C         6.6647612597        3.0961033376       27.4921525740
  C         7.6596053852        2.7519240315       24.1740822362
  C         8.2855840922        4.7273648278       23.1853520412
  H         5.6771271813        5.0005305507       24.2976258150
  H         6.3648008153        6.5839774143       24.6315575567
  C         5.1529353596        5.9720389345       26.2311043090
  S         6.8428270024        0.8748679158       26.1529641527
  C         6.4941983211        1.8096222738       27.5873886996
  H         6.3259962580        3.7954969172       28.2041690703
  C         7.8878460504        2.1089745005       22.9915784541
  H         8.3424404725        5.8026443149       23.2277928693
  C         8.5251275169        4.1332433772       22.0384310744
  H         5.2049058906        5.0935594342       26.8428982554
  H         5.4398731553        6.8318128736       26.8103283207
  C         3.6895896519        6.2339708526       25.7291113611
  C         6.0101888278        1.1962059101       28.8324102950
  C         8.3866474703        2.7772115306       21.8778826441
  H         7.8550875346        1.0600098001       22.9156900669
  C         8.8008429938        4.5763113150       20.7520301112
  H         3.4202254014        5.3889486180       25.1481223613
  H         3.6311758276        7.1040007032       25.0250783378
  C         2.7337085501        6.3373950051       26.9544936493
  C         5.9987960515       -0.2200666729       29.1996892651
  C         5.3343069718        2.0499875207       29.8810829240
  C         8.6690098912        2.1256430821       20.5424696652
  C         8.8066472911        3.5043727083       19.8546810709
  S         9.0849874023        6.0792370690       19.9274139714
  H         1.8260331734        6.9191860932       26.6855579380
  H         3.2659042966        6.6704040589       27.8034153079
  C         2.3638749733        4.9583854086       27.5327757638
  N         6.4484319630       -1.2683994125       28.3443174766
  C         5.6057074876       -0.7232017301       30.4555812080
  C         4.8145635002        1.5995381400       31.1258913844
  H         5.1058933209        3.0706646461       29.6470526369
  C         7.4093694027        1.3937926031       19.9982261206
  C         9.9649445361        1.3394014571       20.4529163885
  C         9.1224678606        3.9144144474       18.4947505923
  C         9.3236118106        5.2881141803       18.3674559796
  H         2.1505203193        4.1559792073       26.8253932005
  H         3.2568126346        4.6517416388       28.0733760292
  C         1.1808176743        4.9040747772       28.3381588108
  S         6.3696504190       -2.6584598299       29.0984519172
  N         5.7658394167       -2.1175632608       30.5559900392
  C         5.0321015334        0.1121474693       31.5042328453
  H         4.3547154705        2.3084675937       31.7310530845
  H         7.2145638339        0.4887740013       20.6108477640
  H         7.6894106754        1.1521895374       18.9810409387
  C         6.2177723634        2.2419483310       19.7269111803
  H        10.0743015262        1.0313962000       19.4279206683
  H         9.8538254262        0.3148901575       20.9517980819
  C        11.2323718015        2.0916174546       20.9673930161
  H         9.2573318954        3.2124136231       17.6511690457
  C         9.5857254949        6.1070863904       17.1553136901
  H         0.8564510299        3.8670233439       28.3418725458
  H         0.4343385724        5.4121179649       27.7446501684
  C         1.2380780556        5.6176555595       29.6282321251
  C         4.7619265862       -0.5057769589       32.7639873834
  H         6.5409564029        2.7945117543       18.8534237476
  H         6.0170347396        2.9619437831       20.5553895191
  C         4.9448532716        1.4253742357       19.5476571248
  H        10.9363223255        2.6458597341       21.8264380323
  H        11.5241230020        2.8285725109       20.1946666562
  C        12.4488392827        1.1963382839       21.2318793227
  C         9.7173382905        7.5064385098       17.0842017839
  C         9.7728086688        5.3740775239       15.8463782048
  H         1.6376207708        6.5684849180       29.4878161819
  H         0.2328415996        5.8492291029       29.9753962681
  C         1.9807833570        4.8834014567       30.8062663123
  H         4.6646457496       -1.5842322171       32.6320633580
  C         4.5544500624       -0.0890035736       34.0549092784
  H         4.4949107146        1.2717795319       20.5435779364
  H         5.3250631486        0.4590148127       19.1409758167
  C         3.8087253754        2.0193630755       18.6234750685
  H        12.0773483378        0.5825323644       22.0567334133
  H        12.5842314481        0.6559583359       20.2809846586
  C        13.6725663114        1.9440937831       21.6378639580
  N         9.4786923538        8.3993526778       18.1231470451
  C        10.0037178300        8.1408295296       15.9051924698
  C        10.0752791616        5.9879385439       14.7084880585
  H         9.6208055369        4.2916680962       15.9099915679
  H         1.8454227832        5.5141762878       31.6838216603
  H         1.5207956647        3.8879219218       30.9318263645
  H         2.9538639557        4.6835852193       30.5634337923
  S         4.4510632094        1.5713705586       34.4716968458
  C         4.5917656850       -1.0806037003       35.1962331223
  H         3.3560925988        2.7137278885       19.2297261700
  H         4.2588313459        2.4699112264       17.8136036004
  C         2.8168612188        0.9395824262       18.1680814189
  H        13.4204104014        2.8110878884       22.2382084071
  H        13.9860313492        2.3531259383       20.6451866275
  C        14.6370565335        1.0455158953       22.3105686661
  S         9.7435996194        9.9187206504       17.5733764592
  N        10.1191267409        9.5697903386       16.0627006936
  C        10.1896179008        7.5018184661       14.6171264521
  H        10.1993745273        5.3718522730       13.8430378168
  C         4.1941625679        0.9071634526       36.0716824105
  N         4.2678763087       -0.4424287686       36.3405500840
  O         4.8263926967       -2.2508437340       34.9961713571
  H         1.9334823543        1.4822274722       17.7569191422
  H         2.4648368192        0.2896500338       18.9765637246
  C         3.4187027063       -0.0115110582       17.0907538119
  H        14.2007366014        0.2859244374       22.9327854759
  H        15.2896866387        0.5292023933       21.6147625338
  C        15.6227712925        1.8965068674       23.0953880787
  C        10.6143259594        8.2565382601       13.4709293741
  S         3.8225287877        1.8601079322       37.5368458608
  C         4.2832857749       -1.1148246164       37.6249848157
  H         3.1454653232        0.2260490961       16.0777019213
  H         4.5548670214        0.1515771643       17.0323399548
  C         3.1026793376       -1.4516216165       17.3333919132
  H        15.2070256761        2.1312584051       24.1208877583
  H        15.7264100940        2.9004735806       22.5812669194
  C        16.9261206720        1.3025801472       23.5216309415
  H        10.3746975013        9.3059509962       13.5126153556
  C        11.1334040739        7.9105496361       12.2565413314
  H         3.6599892547       -0.7802954872       38.4678062191
  H         3.9484580761       -2.1325424112       37.4954080813
  C         5.7265333304       -1.0269570477       38.2044034532
  H         3.3450812974       -1.8597762638       18.3108993716
  H         3.6531320741       -1.9770616039       16.5301893928
  C         1.5459370147       -1.6673696710       17.1712885885
  H        17.3258630592        1.8053549617       24.3909916930
  H        16.8622615021        0.2394592401       23.7053101340
  C        17.9579577612        1.4785371837       22.3688950555
  S        11.4514045744        6.2885589583       11.7295625356
  C        11.3502767799        8.9846333062       11.2616462390
  H         6.4118271336       -0.3836483031       37.6577898495
  H         5.5870273910       -0.4930965717       39.1437278372
  H         6.3410451359       -1.9348881054       38.3159420837
  H         1.2537188965       -1.3303150066       16.1916549915
  H         1.0736465116       -1.1517092764       17.9810950940
  H         1.3544391298       -2.7404859096       17.3709499993
  H        17.5012800923        1.2112952696       21.4012508782
  H        18.9064977217        1.0300013991       22.4900035932
  H        18.0842282207        2.6040815969       22.2411768247
  C        11.9220030682        7.0133685062       10.1809270474
  N        11.8468383756        8.4018038534       10.1314222519
  O        11.0797429759       10.1610965439       11.3341556654
  S        12.3261623270        6.1797282830        8.7086699904
  C        12.0306540368        9.1981794206        8.8994770219
  H        12.3761797919       10.2641847375        9.0616806318
  H        12.8675750731        8.6995502285        8.3138149706
  C        10.7056316274        9.1092710100        8.1636944620
  H        10.5941676228        9.8100756230        7.3235298800
  H        10.4043881360        8.0552190627        7.9385557315
  H         9.9779865710        9.5767250008        8.8749582996
  H        21.0546370321       11.0628142370        2.4505896916
  C        21.3078274751       10.0781845179        2.7296396336
  H        20.3729396414        9.5761351078        2.8366139127
  C        22.2043722213       10.1218036244        3.9734688235
  C        21.9747106840        9.2889570137        1.5777250444
  C        21.6397108248       10.2598155675        5.3899331629
  H        22.9708695188        9.3331085058        3.9114605040
  H        22.7820170795       11.0195327437        3.8441124796
  H        22.2246739852        8.2876769221        1.8759979480
  H        22.9458384287        9.6544692403        1.2802891894
  H        21.2776460626        9.3056584836        0.6905278960
  C        21.1817367000        8.9758111390        6.0575076037
  H        22.4015324492       10.6249185030        5.9977297294
  H        20.7605197558       10.8730260216        5.4034274918
  C        20.0341592747        9.3969266508        7.0407026497
  H        22.0137200582        8.5780068440        6.6120309504
  H        20.7645907918        8.2001442918        5.3752620893
  C        18.5995863526        9.3598968782        6.4343515305
  H        20.1622073154       10.4114916715        7.3270135672
  H        20.0466402766        8.7347308263        7.9690987043
  C        17.4983691510        9.6625669142        7.4421579963
  H        18.6585609917       10.0785183838        5.6221671367
  H        18.3248745319        8.4961704803        5.9324177798
  C        16.3298987245       10.6148010407        6.9627826319
  H        17.8437189339        9.9580842546        8.4181947541
  H        16.8892985103        8.8175845697        7.5216836765
  C        16.6729300516       11.9218761753        6.3169586432
  C        15.7877263257       11.3057197433        8.1375547942
  C        15.1907561645        9.9272895197        6.2350491716
  C        16.5172266775       13.0239854238        7.1412139114
  C        17.2587046044       12.2922107031        5.0910340553
  C        16.0015990924       12.6288608927        8.3324900533
  C        15.2959506239       10.5661331991        9.2440159355
  H        15.6162790140        9.2977417846        5.3854308724
  H        14.6969022443        9.2964268684        7.0345514135
  C        14.1441717505       10.7964629504        5.6545005396
  S        17.0641661574       14.5300930597        6.4371747337
  C        17.4038653777       13.7016973680        4.9496392340
  H        17.3732317366       11.4315548266        4.3513926351
  C        15.5927135266       13.2282879150        9.4624232605
  H        15.3298889549        9.5425570157        9.1313904339
  C        15.1065660436       11.1479972468       10.4461074905
  H        14.4740600891       11.1027761311        4.6845493623
  H        13.7718953101       11.6947397565        6.2088271822
  C        12.8714715936       10.0346254222        5.1861352923
  C        17.9153502064       14.4009174177        3.7689306039
  C        15.1465235251       12.5095752194       10.5925388261
  H        15.7053661920       14.3362701341        9.5648596707
  C        14.7388640499       10.7518893260       11.6891829192
  H        12.0566186546       10.2505110366        5.8490021152
  H        13.0691842696        8.9850374054        5.4160879877
  C        12.3872816049       10.1184207071        3.7290042354
  C        18.0270209318       15.7908188018        3.5462981870
  C        18.3936017961       13.5135442232        2.6092316746
  C        14.8112457678       13.2054106543       11.8794186924
  C        14.5672597275       11.8159495656       12.5549329899
  S        14.4661801542        9.2587015503       12.4361230132
  H        12.4705047579       11.1780501150        3.4788344049
  H        11.3394965792        9.8986171415        3.7414710757
  C        13.1952975354        9.2622865723        2.7861746025
  N        17.6282622828       16.8545357960        4.4001416425
  C        18.2938910791       16.2897178566        2.2988017364
  C        18.8415632207       13.9819103087        1.3563632817
  H        18.4048520943       12.4417614809        2.8128696512
  C        13.4868352710       13.9196796463       11.5357961738
  C        15.8143288126       14.1656161946       12.4895509293
  C        14.0857863420       11.4955691425       13.8390954419
  C        14.0277385490       10.0774963090       13.9293891610
  H        14.1011843594        8.8533927365        3.2269236426
  H        12.5292680596        8.4471899482        2.5788398734
  C        13.5757147863        9.9224768854        1.4805904166
  S        17.7514193548       18.3076246785        3.6321443184
  N        18.0123358431       17.7016856350        2.1615665032
  C        18.6613906666       15.4838790943        1.1561220972
  H        19.1687668991       13.3596673769        0.5431237570
  H        13.6922318415       14.8121066150       10.9172157402
  H        13.0995740432       14.4034433415       12.4122202474
  C        12.2729424383       13.0976673097       10.9397238060
  H        16.1144421487       14.9862903239       11.8719768072
  H        15.3913381226       14.6596895601       13.3795784422
  C        17.0795962485       13.4154956664       12.9262081585
  H        13.8637042342       12.2712072612       14.5037757719
  C        13.7148363970        9.2632184107       15.1374809713
  H        14.4418775235        9.4210770819        1.0414109229
  H        13.9154507195       10.8714085003        1.7744274753
  C        12.4834363233        9.9910927496        0.4097685518
  C        18.7511043303       16.1250373084       -0.1477657954
  H        12.5781039270       12.4409136935       10.0778005840
  H        11.8522983594       12.5903268669       11.7492591304
  C        11.1868080954       14.0592803422       10.4850730934
  H        17.5740744317       12.9242702020       12.0592479099
  H        16.9055366014       12.6674039996       13.6933867420
  C        18.2943383960       14.3048051515       13.3417102254
  C        13.8271926123        7.8474431507       15.2596163035
  C        13.4639950974        9.8948257618       16.4187599644
  H        12.0989387909        8.9774644537        0.3905241763
  H        11.6324857795       10.6218416544        0.6833677108
  C        12.9562957178       10.3495958904       -0.9876889066
  H        18.5917108831       17.2218389593       -0.1455768420
  C        19.0213894170       15.7167558178       -1.4564433130
  H        11.6092425795       14.8550558694        9.9651039099
  H        10.7538506057       14.5319401776       11.3554536603
  C        10.0282452868       13.3949971299        9.8520329629
  H        18.8309858982       14.6747033163       12.4741239065
  H        17.8849568607       15.1402750482       13.8954021057
  C        19.2738973162       13.5296699415       14.2915327631
  N        14.0691706728        6.9629303952       14.1722155088
  C        13.4999110509        7.1491422966       16.4415596220
  C        13.1776758093        9.1628540191       17.5880208400
  H        13.5592949577       10.9815007260       16.5137233879
  H        12.2057683247       10.6057817610       -1.7185414033
  H        13.6070147760        9.5204831760       -1.2572051178
  H        13.5815200341       11.2678016226       -0.8846347360
  S        19.3140664661       14.1119777215       -1.9249111691
  C        18.8690591954       16.6967593175       -2.5934648943
  H         9.7468980613       13.9141240356        8.8871011440
  H        10.3589382756       12.3593936046        9.5667189465
  C         8.8805216566       13.1006325740       10.7694968291
  H        19.8689518194       12.7347392294       13.7916783108
  H        18.6546324476       13.0868519718       15.1326293485
  C        20.1644891949       14.5781360922       14.9158852099
  S        13.8435762492        5.4564587400       14.7056277832
  N        13.4400347840        5.8168703769       16.2466964218
  C        13.0259461019        7.7435512526       17.6379940121
  H        13.1406484318        9.6716819137       18.5335762727
  C        19.5250802850       14.7751086323       -3.5599879227
  N        19.3183543244       16.0988886901       -3.7492629791
  O        18.5701888288       17.8601817344       -2.4466111486
  H         9.2378795356       12.4434797366       11.5762956413
  H         8.6795150457       14.0393490770       11.2800001314
  C         7.6015261451       12.5319197569       10.2235452893
  H        19.7214032493       15.5565572087       14.7815893886
  H        19.9944891405       14.4667701695       15.9894010630
  C        21.6615959327       14.5664667837       14.5807592379
  C        12.7168345603        6.9231220017       18.8133073687
  S        19.9677977693       13.8123407394       -4.9533620449
  C        19.2698153013       16.7713142600       -4.9853661108
  H         7.7858315894       11.8500061917        9.4022246482
  H         7.1633741167       11.8199659247       10.9546839267
  C         6.5402690662       13.5842016255        9.9701996609
  H        21.9077884231       13.7389686693       13.9350865910
  H        22.1215476693       14.4349174973       15.5582358746
  C        22.2987060710       15.8061554241       13.9385482318
  H        13.1175650898        5.8998388710       18.8222544885
  C        12.3476318397        7.2943758730       20.0599254740
  H        19.9521941591       16.3884171166       -5.7739254458
  H        19.6359643884       17.7674683670       -4.7995816535
  C        17.8064928141       16.9624804265       -5.5620178063
  H         6.6547221030       14.5226937554       10.5196063933
  H         5.4709603106       13.2899171918       10.2217108062
  C         6.5872026075       14.0618601399        8.4871091397
  H        23.2353732128       15.5626974282       13.5403524152
  H        21.7545524995       16.1310920895       13.0708707098
  C        22.1860062538       17.0101221759       14.9225433010
  S        11.7331316889        8.8469959813       20.4553983828
  C        12.1893326790        6.2646777341       21.1542356974
  H        17.6744336442       16.1627663933       -6.2583296897
  H        17.7267204993       18.0027388110       -5.8842156869
  H        16.9644323849       16.9551136512       -4.8095883569
  H         5.6758090810       14.5659840461        8.2079970506
  H         7.4104412075       14.7251286251        8.1730303474
  H         6.6217761741       13.2326864898        7.7833587971
  H        22.4909995641       17.9263938852       14.3823956560
  H        21.1787508108       17.1788870122       15.2177394647
  H        22.8901008349       17.0059886691       15.7762301153
  C        11.4880059992        8.1788668734       22.0944232050
  N        11.6641020627        6.8478757161       22.2224313118
  O        12.5438016567        5.1075786379       20.9927670742
  S        10.5627906312        8.8614927497       23.4779196489
  C        11.4509006964        6.0276061557       23.4810146275
  H        11.3559977113        4.9734111196       23.1401517243
  H        10.5594875692        6.3591084145       23.9908306141
  C        12.6600310916        6.2548806380       24.3897883773
  H        13.1225594606        7.2283434626       24.2958382313
  H        13.5004134352        5.6318421969       24.1662285268
  H        12.2300775374        6.1644918656       25.4051932725
