352
 i =    79400, time =    79400.000, E =        24.9148442517
  H        10.4148168595        7.2822731933       31.8359658286
  C        11.2576725765        6.5833028823       31.9862842109
  H        12.0812056062        7.2706404756       32.1997255790
  C        11.5321666212        5.7379007912       30.7325628639
  C        11.0091988688        5.7429696353       33.2242903652
  C        10.3745672010        5.0949952769       29.9639766110
  H        12.1371901437        6.3363160851       30.1159876252
  H        12.2490238081        5.0168755503       31.0715831832
  H        11.2651377989        6.2752839033       34.1152597648
  H         9.9163448177        5.4671978253       33.2277763088
  H        11.4292636040        4.7006329307       33.2392521893
  C         9.8016111260        6.0293689902       28.9331216150
  H         9.6032561266        4.9225723239       30.6709179055
  H        10.8444700989        4.1852353160       29.6375518951
  C        10.5671064632        6.0606716950       27.6304529751
  H         8.7395835631        5.7504419569       28.7992330338
  H         9.7931131400        7.0138611038       29.4216747751
  C         9.7357922146        5.1908973011       26.6790535230
  H        11.5009636395        5.4722995831       27.6004859851
  H        10.8067719162        7.0228640166       27.1581055691
  C         8.5261021110        5.9904822147       26.0977966042
  H        10.3706841956        4.7425724800       25.9009485641
  H         9.4609298535        4.3767724228       27.2895501665
  C         7.3909190301        5.1970732744       25.5448610515
  H         8.0269662417        6.5803484235       26.8870491111
  H         9.0550552930        6.7871399339       25.4446547201
  C         7.1197449916        3.8167458519       26.2097008534
  C         7.7477354659        4.3845716548       24.3001152360
  C         6.1304449429        6.0189362974       25.1342379313
  C         7.3435122999        2.7186018333       25.4070554950
  C         6.6507469850        3.4336193881       27.4452633812
  C         7.6635513974        3.0722425367       24.1249821742
  C         8.1614620675        5.0835941848       23.1143454050
  H         5.5450720649        5.4618884746       24.4015731214
  H         6.4500164910        6.9864142828       24.6085480639
  C         5.2033043472        6.4271058310       26.2990052019
  S         6.9434521296        1.2500577228       26.0749378256
  C         6.5307930365        2.1167192118       27.5184872276
  H         6.4750202919        4.2421440622       28.0851556636
  C         7.9531795070        2.4979695169       22.9447190072
  H         8.3165034617        6.1560031484       23.1793434750
  C         8.4061627890        4.5500178578       21.9793974780
  H         5.3549435485        5.7896750082       27.1484626875
  H         5.4878154954        7.4026132960       26.5938773205
  C         3.7622784988        6.4006854026       25.8100581875
  C         6.1537673770        1.3634861408       28.7939303861
  C         8.2456570236        3.2210925277       21.8167038068
  H         7.9585625917        1.3794078783       22.7852516282
  C         8.8795751143        4.8941329894       20.7490337243
  H         3.3790284743        5.5096761780       25.4135514555
  H         3.7117196993        7.1239888878       24.9601435121
  C         2.7332742640        6.7904034483       26.8885411047
  C         6.1334920568       -0.0328069730       29.1159929443
  C         5.6085645094        2.1705894793       29.9016631577
  C         8.6104965031        2.5010541327       20.5664963781
  C         8.8507785034        3.8245646652       19.8719270540
  S         9.2829599174        6.4067171965       19.8906993751
  H         1.8397623432        7.4528473298       26.5264443889
  H         3.4543135940        7.3909242256       27.4475587183
  C         2.3916619251        5.5079569050       27.7292217334
  N         6.6532309033       -1.0325153284       28.3070831196
  C         5.7214359723       -0.6083528397       30.2956865457
  C         5.3233293964        1.6271423299       31.1243086922
  H         5.5456240962        3.2536439414       29.8054034611
  C         7.3960193494        1.7344787324       20.0107317480
  C         9.8590043642        1.6457160342       20.6516776479
  C         9.2489733024        4.2118808589       18.5193532422
  C         9.3874292887        5.5499467380       18.3873193473
  H         2.5749061008        4.6069872065       27.1403540042
  H         3.0387199505        5.5393779406       28.6316902734
  C         0.8960749117        5.5883286890       28.0806084558
  S         6.3751321000       -2.5126057069       28.9331221289
  N         5.9137460789       -2.0106822409       30.3857101120
  C         5.4354867258        0.2202586659       31.4312436621
  H         4.9343754516        2.2624202613       31.8479409728
  H         7.1499742848        0.9227402411       20.6611630088
  H         7.5929643154        1.2436112978       19.0482145471
  C         6.2344278708        2.6794970025       19.7989402679
  H        10.0093927493        1.0787700836       19.7427849189
  H         9.7352426434        0.9437495750       21.4836171599
  C        11.1515875609        2.3518914924       21.1172203704
  H         9.2169615227        3.3918581006       17.8142189845
  C         9.7149776434        6.2316366672       17.1215493368
  H         0.2834589253        5.3747215681       27.2498271410
  H         0.5692733534        6.6839283451       28.1326231953
  C         0.3758807538        4.8505658569       29.2816830490
  C         5.2105400772       -0.3398357251       32.7462375856
  H         6.4054788809        3.3943642647       18.9898477718
  H         5.9760749155        3.1939252817       20.6900336280
  C         4.8786422257        1.9561608063       19.6510710366
  H        10.9435373842        2.7973077560       22.0877150933
  H        11.3484746454        3.1596630997       20.4230199396
  C        12.3804602020        1.3591687027       21.3171541729
  C        10.0478989185        7.5484473366       16.9160903568
  C         9.8965731669        5.4122543247       15.9033767479
  H        -0.6625830627        5.1667982116       29.4300282937
  H         0.4021513470        3.8085803023       28.9733258781
  C         1.0261826592        5.1943121173       30.6379927948
  H         5.3332498824       -1.3701915484       32.6898841177
  C         4.8534065729        0.1940621817       33.9636026435
  H         4.0236589033        2.5043037285       19.9478378204
  H         5.0354129515        1.0407217838       20.2877454710
  C         4.6674909813        1.3791561109       18.2833673650
  H        12.1115741598        0.5483072542       21.9402925165
  H        12.6890630863        0.8110534716       20.4534980189
  C        13.6139455296        2.1450425156       21.7660811451
  N        10.0919082392        8.4522650573       17.9552268347
  C        10.4339757929        8.1087146971       15.7070819228
  C        10.3851751010        5.9159629190       14.6712278589
  H         9.6856332101        4.3622498126       15.9873447663
  H         1.1523317537        6.2540108597       30.8287029896
  H         0.4550935256        4.7216231011       31.4940710293
  H         2.0718788295        4.8017567272       30.6463126468
  S         4.5451680502        1.8373911336       34.4054367900
  C         4.8859320976       -0.7623475257       35.1106137961
  H         4.7688286479        2.3131491722       17.6753654632
  H         5.4689414358        0.7496762961       17.9165250367
  C         3.3337181016        0.7377955316       18.1128851268
  H        13.3779720610        3.0248898888       22.2918681354
  H        14.0600861876        2.4274279324       20.8069021808
  C        14.6471913863        1.3244439061       22.5525230668
  S        10.2351473930        9.9163375624       17.2830993420
  N        10.6001456697        9.5141234876       15.7409358074
  C        10.5399827405        7.4262067811       14.5374883506
  H        10.5499063933        5.3361688502       13.8105139573
  C         4.2129437114        1.1649113503       36.0277781826
  N         4.4839221139       -0.1454290278       36.2210922452
  O         5.2889610566       -1.9306163752       35.0174427689
  H         2.8986127225        0.8870160024       17.2248486717
  H         2.6976430543        1.1213490341       18.8517607958
  C         3.3395850872       -0.8386560176       18.3776208642
  H        14.2073484731        0.6328152675       23.3278243188
  H        15.1369162084        0.6597861766       21.9340201535
  C        15.5381198448        2.3578647909       23.1823851208
  C        10.9848664047        8.1786032506       13.3793575219
  S         3.9484900550        2.1628247660       37.5163137309
  C         4.5003723213       -0.7658850920       37.5410657326
  H         4.0048652812       -1.4806216887       17.7638942704
  H         3.5930758116       -1.0229945015       19.4451477731
  C         1.8812948964       -1.3190197558       18.0590085119
  H        14.9735095390        2.8810191832       23.8731410013
  H        15.8505178487        2.9742640432       22.3695456398
  C        16.7325954370        1.7646209152       23.9143988291
  H        10.6929587614        9.1787373500       13.3017204866
  C        11.6253768844        7.8055151697       12.2077283770
  H         3.6977706933       -0.4935203474       38.2141588545
  H         4.4038835527       -1.8130951651       37.4774721760
  C         5.8000759501       -0.5424329583       38.2560800924
  H         1.1705946815       -0.5286918380       17.9838615664
  H         1.5353879700       -2.0154536400       18.8266071478
  C         1.7673717107       -1.8493860568       16.6398107622
  H        16.9344341340        2.3231991580       24.8122925455
  H        16.4232695916        0.7488532901       24.1570909363
  C        17.9502128383        1.7256570064       22.9772116944
  S        12.2599636986        6.2412577746       11.8821413025
  C        11.7364187949        8.7940131482       11.1288222582
  H         6.2317597388        0.3669163018       38.0352276680
  H         5.4927682659       -0.2882725390       39.2725690627
  H         6.3987909233       -1.4120366768       38.2167226879
  H         2.6400944791       -1.4593327047       16.1297108061
  H         0.8845589537       -1.3593567492       16.0980840609
  H         1.7359929877       -2.9533376106       16.5864082209
  H        18.3525930633        2.6584881809       22.5859609239
  H        17.7920526311        1.2609857177       21.9277966423
  H        18.8460931479        1.2109103616       23.4556286670
  C        12.7775601032        6.9365375630       10.3974718208
  N        12.5489436800        8.2727764157       10.2055373600
  O        11.2403953304        9.9263152836       11.2374955575
  S        13.4477744934        5.9581318180        9.0542478252
  C        12.8928786484        9.0168792113        9.0050004855
  H        13.0066853388       10.0613887224        9.3280265280
  H        13.8456661557        8.8129547014        8.5659586145
  C        11.8579228096        8.8368184921        7.9922773397
  H        11.0131981701        8.3187354722        8.3787554449
  H        11.4042595120        9.7854360655        7.7281408149
  H        12.1379329178        8.2078112501        7.1789855864
  H        21.0579484859       11.1542128064        3.4006061298
  C        21.5300894886       10.1927644390        3.4606786906
  H        20.8430550351        9.4597027938        3.5978375801
  C        22.5423329192       10.0243952291        4.5308371502
  C        22.0973899122        9.9885104232        2.0730250179
  C        21.8866035377       10.2069327142        5.8508386711
  H        22.9641429746        9.0125368712        4.4310188020
  H        23.3089869255       10.7468502793        4.3205014949
  H        22.8961835230       10.6974927699        1.8829030649
  H        21.3559713009       10.5382942882        1.4658032937
  H        22.2733968666        8.9050517870        1.8667642105
  C        21.2179890679        8.9506593821        6.3559291865
  H        22.6023651445       10.6599787163        6.6016223255
  H        20.9812655130       10.9110500652        5.7438086362
  C        20.1687916089        9.1222984593        7.4524164466
  H        21.9327172965        8.3869506103        6.9609087781
  H        20.8943219017        8.2591472832        5.6016440992
  C        18.8538050734        9.5254604069        6.7207200991
  H        20.5042912463        9.9830572250        8.0031250479
  H        20.0515770490        8.3810552774        8.2022977837
  C        17.8189289743        9.9447941303        7.7095830071
  H        18.9580801930       10.3607325846        5.9812081929
  H        18.5923253342        8.7426032571        6.0459902607
  C        16.6380057271       10.7744128140        7.1661516719
  H        18.3039487619       10.2851968990        8.6894843583
  H        17.4243981109        9.0179152071        8.0276521656
  C        16.9413864758       12.1053462994        6.4329188559
  C        16.1763028177       11.5338345516        8.3314864794
  C        15.5695830655       10.0194713501        6.3532442390
  C        16.7223054774       13.2498698488        7.1796505078
  C        17.3491591576       12.4592679271        5.1712482978
  C        16.1596044773       12.8800950307        8.4347533253
  C        15.7134163438       10.8768127434        9.4440384516
  H        16.0049226750        9.7065117193        5.3869679911
  H        15.3092534789        9.1084549387        6.7983436930
  C        14.2470451078       10.8204306514        6.2059312849
  S        17.0721345566       14.7294330109        6.3132429379
  C        17.5810380002       13.7975400621        4.9194194498
  H        17.5221040996       11.7274729556        4.3958380847
  C        15.8254070905       13.4792874655        9.6703376353
  H        15.5280552811        9.8184058692        9.2926618022
  C        15.3685964570       11.4606192274       10.6677200559
  H        14.4294714926       11.8413054771        5.9432650189
  H        13.7538839883       10.7426742943        7.1779146356
  C        13.2351380886       10.3253501202        5.1392916640
  C        18.2046936479       14.3598700154        3.6523497477
  C        15.3792087716       12.7967914126       10.8224995360
  H        15.7723581538       14.5644760220        9.7106047334
  C        15.0888786469       11.0605724176       11.9493885153
  H        12.2579389948       10.8274952898        5.2089631310
  H        12.8615612863        9.3370916620        5.3464898397
  C        13.6187497719       10.4436432582        3.6234407340
  C        18.3941387569       15.7380262104        3.3489171438
  C        18.6861804159       13.4825403031        2.6093553651
  C        15.1040290052       13.5099019100       12.1942618743
  C        14.9477843738       12.1402442566       12.8457482949
  S        14.8058006864        9.5780814165       12.7380354590
  H        14.5057130351        9.8569199623        3.4782359363
  H        13.7218856986       11.4729239598        3.3344042212
  C        12.5657568525        9.9333157555        2.5859627387
  N        17.9625377980       16.7743794893        4.2462752937
  C        18.5492486672       16.1427075638        2.0622335055
  C        19.1827599128       13.9571011723        1.3752729598
  H        18.8000280172       12.4853332616        2.8351171423
  C        13.7671957968       14.3706583156       12.1152345605
  C        16.2992562376       14.3205366612       12.7387602663
  C        14.6393477764       11.6830747178       14.1602265435
  C        14.6284586004       10.3206536301       14.2720747651
  H        11.7842785470        9.2935143693        3.0016204647
  H        12.0361076495       10.7844645460        2.0942093678
  C        13.2567532109        9.1273106994        1.4104174228
  S        17.9157893181       18.1947427555        3.3996320770
  N        18.3490187298       17.5560549597        1.9626437154
  C        18.9515344671       15.3560178778        0.9754830488
  H        19.5844698657       13.2365370252        0.6266682668
  H        13.8528960344       15.1113549081       11.3605116577
  H        13.7442351270       14.9721499013       13.0224571009
  C        12.4750411197       13.6315681203       11.8310737296
  H        16.3259604810       15.2470545964       12.2115524021
  H        16.2184977221       14.5190768320       13.7665550267
  C        17.5802330895       13.5557598373       12.6133537980
  H        14.4153143897       12.3401052707       14.9107300922
  C        14.1854467509        9.5566753677       15.5014740233
  H        12.6787982782        8.2161455847        1.2478472094
  H        14.1705988464        8.7392432621        1.8924658607
  C        13.5689334325       10.0533385720        0.2246162622
  C        19.0057049595       15.8771712391       -0.3368338722
  H        12.7572347115       12.8451797756       11.1515680823
  H        12.2718580307       12.9793862163       12.7080047690
  C        11.3275934249       14.4906069911       11.2670078676
  H        17.9047136363       13.4339617728       11.5737788371
  H        17.4605148844       12.4874729491       12.9553859047
  C        18.7072617652       14.3127017497       13.3173330426
  C        13.9772787655        8.2302077776       15.6123232032
  C        14.0558665962       10.3006787173       16.7274606392
  H        13.4115876580       11.1534577220        0.4559913903
  H        14.6453484903       10.0225894114        0.0586515075
  C        12.8307113950        9.8089856492       -1.1214498139
  H        18.8580079693       17.0079434458       -0.3919977386
  C        19.2621231595       15.4165894558       -1.5962732745
  H        11.6791489133       15.0807638634       10.4357227342
  H        10.8577609054       15.1971563935       11.9816985232
  C        10.1794792061       13.5437083794       10.8749357659
  H        19.0754383183       14.9378044178       12.5427388417
  H        18.3465947842       14.9162012938       14.1390698145
  C        19.8315653788       13.4160931645       13.8506465148
  N        14.0707067851        7.3073578643       14.5239401828
  C        13.5117675174        7.5470447592       16.7273092203
  C        13.7472834035        9.6290771288       17.9201820074
  H        14.2978380990       11.3577427561       16.7927191346
  H        11.7671222682        9.6481584005       -0.9677636455
  H        13.0776194660        8.9184302718       -1.6795440176
  H        12.9890890848       10.6431726420       -1.8704215505
  S        19.4742494211       13.7607295480       -1.9824765986
  C        19.3263570033       16.3286741765       -2.7646075159
  H        10.6467317185       12.6533097097       10.7353120081
  H         9.5097202880       13.4578519547       11.7640867369
  C         9.2641437319       14.1241996321        9.7417636394
  H        20.3500481140       12.8056195067       13.0964628547
  H        19.3260851348       12.5719856722       14.3717698740
  C        20.9031578902       14.2248853722       14.6996399689
  S        13.8269845122        5.8150066126       15.0129252373
  N        13.2286409936        6.1635122789       16.4852361498
  C        13.3221907410        8.2185739476       17.9259160894
  H        13.8387481561       10.1338969790       18.8380099364
  C        19.8193355022       14.3510867582       -3.6502524204
  N        19.8041809736       15.7143205591       -3.8284975277
  O        19.2118475249       17.5671109809       -2.7357489931
  H         8.6483287339       15.0026847995       10.0754528174
  H         9.8808330081       14.6672385159        8.9654648068
  C         8.3206969265       13.1221101358        9.1697589880
  H        20.8166249510       14.0887272345       15.7752322654
  H        21.8510209396       13.7673341323       14.3905997454
  C        20.9249285854       15.7495158414       14.2956626000
  C        13.0858454665        7.4787943204       19.0985276721
  S        20.4483755452       13.3287204284       -4.9389016719
  C        19.9020507995       16.4762233090       -5.0928437322
  H         8.8580133876       12.4635401142        8.5245322295
  H         7.8912335540       12.5382291742        9.9170827777
  C         7.2142934827       13.7577917066        8.3620701115
  H        19.9573503896       16.2074729568       14.5848919386
  H        20.9562213996       15.8062179701       13.2112612029
  C        21.9192630466       16.8023199096       14.8793977923
  H        13.2103321850        6.4304834444       18.9859224937
  C        12.5506077966        7.8770993505       20.2757604274
  H        20.6972770058       16.1074054974       -5.6853217962
  H        20.1841199587       17.5063615221       -4.9990279966
  C        18.5103422263       16.4925741935       -5.8329768501
  H         6.9782716491       13.0957286066        7.5044612870
  H         7.4916172727       14.7427580148        8.0278207364
  C         5.9413683001       13.8506033997        9.1697748170
  H        22.8285887255       16.3323824665       15.1961867289
  H        22.1664202303       17.5341881360       14.0781805454
  C        21.3093287407       17.6822054742       16.0184263378
  S        12.0765221147        9.4191313637       20.7874184776
  C        12.4100253648        6.7636421141       21.2851574985
  H        18.4713354384       15.7332688877       -6.6215541480
  H        18.2502915444       17.3966193635       -6.3931056980
  H        17.6295662041       16.2326147611       -5.2418748787
  H         6.0979120961       14.5786670752        9.9941651601
  H         5.1015365009       14.2284968906        8.5634654119
  H         5.5526200950       12.8508229615        9.5221186016
  H        21.2935591860       17.1136929705       16.9266299760
  H        21.9576190299       18.5189345710       16.1885372539
  H        20.2730662669       17.9377858703       15.8166706982
  C        11.6020310106        8.6800339183       22.3222923984
  N        11.8149682907        7.3084172527       22.3726201659
  O        12.6714953019        5.5726520093       21.1135228227
  S        11.1539003224        9.5915669732       23.7258119486
  C        11.4802982230        6.5495071455       23.5470338009
  H        10.9548356493        5.6416965810       23.2705772534
  H        10.8479457538        7.0159343270       24.2505756187
  C        12.7662937997        6.2606995495       24.3207046100
  H        13.2655857516        5.6192741000       23.7093136586
  H        12.6747955358        5.7083691558       25.2731994777
  H        13.2757491341        7.2212477696       24.4488366335
