352
 i =    41000, time =    41000.000, E =        24.5422452244
  H        11.7977226706        7.4503423401       32.3650459130
  C        11.5850609954        6.3486841961       32.1913494894
  H        12.5332328607        5.9136307010       32.0122034799
  C        10.4715630661        6.1454525565       31.1685846337
  C        11.0730937155        5.8092434896       33.5352459484
  C        11.1461622108        6.1286693211       29.8141397749
  H         9.9150754749        5.1942818861       31.1934208675
  H         9.6750805014        6.9284088238       31.1972066070
  H        10.9678075687        4.7135901622       33.5345423710
  H        11.7598385139        6.0118505393       34.3929125103
  H        10.1328026398        6.2251175517       33.8484595509
  C        10.3130551752        5.5757441590       28.7123898491
  H        12.0520054491        5.4754431530       29.9372647380
  H        11.5528288480        7.0760265552       29.4968972437
  C        10.8248763863        6.0239844773       27.3732248888
  H        10.4003426311        4.5040546517       28.9425825561
  H         9.2715705850        5.6891352961       29.0992452964
  C         9.9640596117        5.5388184176       26.2000635427
  H        11.9017547906        5.6699769987       27.3753121521
  H        10.8982352869        7.0863623127       27.3770935932
  C         8.7962979130        6.4605615352       26.0695153555
  H        10.5275734947        5.4419775471       25.2888651391
  H         9.7054257266        4.4964422148       26.3965877966
  C         7.5421880565        5.6595546032       25.4305858386
  H         8.4464063689        6.7309279377       27.0174462457
  H         9.0212487465        7.3247589608       25.4838006316
  C         7.1909896078        4.2667824592       26.1888719728
  C         8.0062856109        4.8791725219       24.1750491305
  C         6.3300989869        6.6177000212       25.0789269704
  C         7.4322149904        3.2022808441       25.3860711959
  C         6.6487551160        3.8814538468       27.4087236217
  C         7.8443133698        3.5218118831       24.0534575568
  C         8.3865932083        5.4952905700       22.9973789136
  H         6.5430327160        7.2758313243       24.3014534053
  H         6.0201602021        7.2440552068       25.9056078624
  C         5.0362151305        5.8538059581       24.6829403822
  S         7.0600397452        1.6453997055       26.1381953631
  C         6.4377083107        2.5179278096       27.4842553459
  H         6.4252011315        4.6872125349       28.1341970911
  C         8.0148453682        2.8692399847       22.8809224812
  H         8.3536602707        6.5204325659       22.9900901210
  C         8.6428005639        4.8693599455       21.8316106838
  H         4.9889632283        5.6002003038       23.6244077943
  H         4.9403218831        4.9044809535       25.1782823241
  C         3.7965707574        6.7440915293       24.8272305386
  C         5.9689789928        1.7629655130       28.7351316483
  C         8.5305923082        3.5387552056       21.7475913847
  H         7.8153984261        1.7845729725       22.7982958762
  C         8.9681329458        5.2721194200       20.5009909766
  H         2.9495462964        6.4522499525       24.2501865935
  H         3.9653310247        7.6933466262       24.2975938402
  C         3.2060717155        6.8791000500       26.2461338111
  C         5.8384704717        0.3897012673       28.9284530941
  C         5.5188520386        2.5768843030       29.8895546562
  C         8.8950093846        2.8189085883       20.4253962798
  C         9.1565606853        4.1819420860       19.6939309114
  S         9.3064319708        6.7638029540       19.7165970062
  H         2.4362591624        7.6138052343       26.3260930072
  H         4.0392429278        7.1422285709       26.9160297190
  C         2.5701067152        5.5933997888       26.7402227745
  N         6.2507239830       -0.6048338480       27.9901437714
  C         5.5856542845       -0.1841295821       30.1987623973
  C         5.0878069295        2.0431480756       31.0806098844
  H         5.6146707041        3.6352591493       29.9542418373
  C         7.7705035015        2.0056950113       19.8516813789
  C        10.1564301132        1.9173659931       20.4424544089
  C         9.4419943010        4.5947016121       18.3427473900
  C         9.6094260305        5.9266645558       18.2230044938
  H         1.9290315227        5.1646593209       25.9779674625
  H         3.3261916573        4.8500630970       26.8503105719
  C         1.8278276987        5.8331171144       28.0950620343
  S         6.2124476526       -2.0107177626       28.6598346894
  N         5.7728277722       -1.5699464008       30.1642870577
  C         5.2127333694        0.5892424719       31.3500894695
  H         4.8401347490        2.6813591011       31.8571328790
  H         7.6779788761        1.2027102829       20.5984208534
  H         8.1456024567        1.6675732416       18.8446428507
  C         6.4925867228        2.8261742083       19.5254314388
  H        10.1678160308        1.2158204178       19.6043309643
  H        10.0820620288        1.1788537592       21.2490284366
  C        11.3977055742        2.6749357898       20.6675604620
  H         9.5172838885        3.8038795869       17.6145532530
  C        10.0607532465        6.6219601535       16.9626037094
  H         0.9022173415        5.2240742778       27.9981856127
  H         1.2737507402        6.7808000389       28.2231669200
  C         2.7324325869        5.5403350652       29.3687541152
  C         4.9316288069       -0.0884205766       32.5622750799
  H         6.6454294834        3.6448647749       18.8600859243
  H         6.0709174380        3.2988896218       20.3378255481
  C         5.3365739015        1.9417749477       19.0704000060
  H        11.1825465287        3.1575101156       21.6256369868
  H        11.5828222601        3.4771765379       19.9092699723
  C        12.6718206439        1.7858792128       20.7203815062
  C        10.2998410572        7.9974513237       16.8135883240
  C        10.1655320575        5.8006160066       15.7323620375
  H         3.2141964067        4.5199050141       29.2742440638
  H         3.5773550051        6.2439091913       29.4660536152
  C         1.9266893946        5.6483969797       30.6112992134
  H         5.1071699110       -1.1709345805       32.5348618805
  C         4.6425729088        0.3369527296       33.8372803829
  H         5.1794334860        1.0453412136       19.7208671256
  H         5.3859381052        1.5513957823       18.0390558210
  C         4.0586877949        2.7234088960       19.1392344511
  H        12.6597894893        1.0521914519       21.5141291455
  H        12.6967430676        1.0941187421       19.8663557261
  C        13.8322928633        2.7261498992       20.8222341897
  N         9.9483848688        9.0266014146       17.7779539020
  C        10.5388025505        8.5931921881       15.5927199890
  C        10.6387500032        6.3675981674       14.6004135700
  H        10.0238982900        4.6787545886       15.6889176406
  H         1.1530857687        4.8920326999       30.5651449096
  H         2.5659345322        5.3397928813       31.4388997937
  H         1.3608835491        6.5204824596       30.8740035853
  S         4.2934241577        1.9900594330       34.1949424247
  C         4.4295840101       -0.6462512371       34.9011086274
  H         3.9305505313        3.0126508865       20.2040070382
  H         4.0455649425        3.5359717205       18.4893028453
  C         2.8658815421        1.7389767100       18.9593457982
  H        13.6520538822        3.6599825065       20.2961944761
  H        14.5061801932        2.3642301246       20.1417282003
  C        14.4812323500        3.0126410904       22.1388268502
  S        10.0906868332       10.4516664106       17.0885866222
  N        10.4588919146        9.9505356880       15.6346430546
  C        10.7505950984        7.8108408295       14.4590062843
  H        10.7676666510        5.8112416921       13.7234300178
  C         3.8844350824        1.4122990525       35.7882198714
  N         4.0811964401        0.0644520008       36.0092334390
  O         4.5493814598       -1.8664185997       34.7839502887
  H         2.0161476701        2.3778977927       19.2757292119
  H         2.8715652157        0.8416455978       19.5952768718
  C         2.6221322680        1.3828286199       17.4760409511
  H        15.2115166993        3.8108854553       22.0062961707
  H        13.7222033459        3.4185597406       22.8433777539
  C        15.2321352886        1.8120364346       22.7421117689
  C        10.9621289114        8.5295483254       13.2656275466
  S         3.6947866790        2.4431194339       37.2584765102
  C         3.8883201882       -0.6029114161       37.2990524467
  H         1.5739274504        1.5972154094       17.2664800373
  H         3.2789873101        1.9493818156       16.8279018888
  C         2.8545815790       -0.0894928520       17.0629006500
  H        15.3087158698        1.1756231606       21.8797815799
  H        14.5603356071        1.3098159048       23.4158819189
  C        16.5352067591        2.1590363075       23.3812538577
  H        10.5967541938        9.5527764216       13.2635207776
  C        11.5981938633        8.2625350845       12.0350527375
  H         3.4566751628        0.0090122761       38.0883662227
  H         3.3321563913       -1.5303229663       37.1081854858
  C         5.2699051929       -1.0008544594       37.9006013406
  H         3.8465045767       -0.2476300833       17.4561575394
  H         2.8042853634        0.0020124650       16.0068116209
  C         1.9114973626       -1.0593609291       17.7254455261
  H        16.4428199665        3.0519193388       23.9594709646
  H        16.8598033324        1.3917733539       24.1645105707
  C        17.6794949277        2.3544611335       22.3396910807
  S        12.3197190033        6.7513917171       11.6532416379
  C        11.5024433592        9.3127949390       11.0275739730
  H         5.2794050934       -1.9135908112       38.4217686876
  H         6.0118928800       -1.1280925966       37.1080129505
  H         5.4779041093       -0.2358810786       38.6972161300
  H         2.2796730826       -1.8041554487       18.4492155230
  H         1.4291719390       -1.5236429718       16.9298206552
  H         1.1362445984       -0.5389349100       18.1508473998
  H        18.5645788566        2.6853260332       22.8915451059
  H        17.4984416445        3.0899478863       21.5903987521
  H        18.0121393772        1.3830046646       21.9103371941
  C        12.7704123462        7.6352539487       10.1425009324
  N        12.1613573322        8.8422272445        9.9761021752
  O        11.0062638213       10.4238507845       11.1981578455
  S        13.4182967666        6.9033786823        8.6589835345
  C        12.3309125489        9.7048178386        8.7836838033
  H        12.4215337217       10.7011404778        9.0256894692
  H        13.2532546819        9.4515100485        8.2622741802
  C        11.1367401399        9.5980408093        7.8326978336
  H        11.2113938291        8.6376027330        7.3480371986
  H        10.1505919469        9.6916049041        8.3654926392
  H        11.2591818020       10.4449155563        7.1342432485
  H        21.0953981698       11.1958394862        3.7801665303
  C        21.8891889406       10.4493864132        3.8313657053
  H        21.2820128956        9.5784016269        3.8440218526
  C        22.7253525574       10.5649088086        5.0877314130
  C        22.8754028279       10.5284039060        2.6700537471
  C        21.9339305794       10.7393550959        6.3835514639
  H        23.5096803339        9.7676981548        5.1950987457
  H        23.2684024339       11.4703877764        5.0194949477
  H        23.4410636983       11.4233576296        2.6841505193
  H        22.3687924250       10.3303682792        1.7530366416
  H        23.6518752949        9.7964488835        2.8418037523
  C        21.1900261462        9.5082953694        6.7004116858
  H        22.6100902200       10.9853683783        7.1791916355
  H        21.3443937516       11.5221033226        6.1592508900
  C        20.4673580258        9.7886431456        8.0269337141
  H        21.9151549789        8.6576488999        6.8610459007
  H        20.6449847255        9.0978502791        5.8552167049
  C        19.3217403643       10.8005110790        7.9546463468
  H        21.2289779494       10.0807500182        8.6993665074
  H        20.2524283410        8.8451395447        8.6263228943
  C        18.0443918662       10.2078002647        7.2682387685
  H        19.1938377473       11.1790319218        8.9918769671
  H        19.5743008028       11.7403296546        7.4582619564
  C        16.7716047851       11.1091335249        7.0232598778
  H        17.8181750571        9.3331895719        7.9179547920
  H        18.2966331544        9.7151360895        6.3310723053
  C        17.0695542365       12.4287736494        6.3793321233
  C        16.3798261210       11.7828692391        8.2793626204
  C        15.6823229459       10.2653184363        6.2068924571
  C        16.9346231214       13.5204259482        7.1933238802
  C        17.5445698391       12.8564459080        5.1603603770
  C        16.4778226252       13.1315475303        8.4060323288
  C        15.8791534172       11.1177251120        9.3811029880
  H        16.1290048022        9.6673624527        5.4004573479
  H        15.2692100451        9.5361027372        6.9164616204
  C        14.6850571851       11.2182531194        5.7017192020
  S        17.3830713693       15.0083397185        6.5021095938
  C        17.8229019180       14.2056296933        5.0670089620
  H        17.5809759076       12.0988206009        4.3224583869
  C        16.1829923336       13.6900889491        9.6081559135
  H        15.7138264953       10.0677086859        9.2509186220
  C        15.5661057335       11.6852920326       10.5736900526
  H        15.0519172342       11.8717053375        4.9449784554
  H        14.2842628010       11.7381563327        6.6212825938
  C        13.6443673202       10.4089223561        4.9264048274
  C        18.2769616246       14.8453396810        3.7760945656
  C        15.6785747976       13.0049337523       10.7249745196
  H        16.3727655284       14.7285905819        9.6444956596
  C        15.1216159958       11.3284577288       11.8037909163
  H        12.9216963401       11.1206172067        4.7704727894
  H        13.1850111557        9.6238912229        5.5698072662
  C        14.1043325385        9.9974046236        3.5039611065
  C        18.1967236316       16.1845815395        3.4181502221
  C        18.6610043810       13.9398835074        2.6400283997
  C        15.2402030477       13.7571003052       11.9613186485
  C        14.9373898109       12.4256709411       12.6300214493
  S        14.7476917761        9.8974311489       12.5797677898
  H        14.5500682356        9.0063442995        3.5061057132
  H        14.9910079351       10.4925360873        3.2201723380
  C        13.0643151268        9.9626601074        2.3363743808
  N        17.9911157039       17.2358085798        4.4079292636
  C        18.4487870591       16.7221928231        2.1674003081
  C        18.8873067966       14.4356383707        1.3555975940
  H        19.0032375659       12.9668804047        2.8507993365
  C        13.9034192638       14.4371041501       11.7982529085
  C        16.2846358085       14.6044883003       12.6962926357
  C        14.4665929627       12.0953294174       13.8708363390
  C        14.3703609571       10.7468179380       14.0484231297
  H        12.5723738422        9.0015470238        2.3374395877
  H        12.2926384099       10.7065018925        2.5609413506
  C        13.6659795609       10.2036541943        0.9942807152
  S        17.9555028606       18.6565991990        3.6360926583
  N        18.2445021476       18.0820191184        2.1692447512
  C        18.6921742366       15.8649702980        1.1007578615
  H        19.2778977513       13.7874210758        0.5994299191
  H        14.1297440182       15.2473550335       11.1660459165
  H        13.6840946614       14.8511543922       12.7569942396
  C        12.6254605146       13.6495575827       11.3374887692
  H        16.5025300068       15.5436185613       12.1961265118
  H        15.9241994270       14.8768810807       13.6871769008
  C        17.6915271170       13.9317170632       12.8765582590
  H        14.3102262265       12.8724962937       14.5998817930
  C        13.9153803058        9.9943884900       15.3036055093
  H        14.4966990951        9.4701966568        0.8694852431
  H        13.9343089855       11.1634219552        0.9534690367
  C        12.6592475704       10.1633206708       -0.1332067207
  C        18.6862657382       16.4055516786       -0.2569791526
  H        12.8719280192       13.0465886410       10.5024939774
  H        12.3785463164       12.9478147663       12.1280013660
  C        11.5387334369       14.6527500992       11.0063459148
  H        18.4181880210       14.5549183225       12.3995420256
  H        17.7225169719       12.9532536422       12.4141215142
  C        18.0664616605       13.8504325183       14.3160909611
  C        13.8442321334        8.5710997899       15.4191126908
  C        13.7786159007       10.7288317088       16.5865765890
  H        12.3724168938        9.1163826899       -0.2511665634
  H        11.7833083239       10.7179774709        0.1457558815
  C        13.1826191506       10.5952512606       -1.4778893829
  H        18.3398838004       17.4708060196       -0.2950043595
  C        19.0267639708       15.9435472109       -1.4896808068
  H        11.8377064261       15.1539763126       10.1201287058
  H        11.3933406384       15.5066070751       11.7709571807
  C        10.1325757383       14.1283944720       10.7914387816
  H        17.8445969885       14.8656611220       14.8251610929
  H        17.5433145147       13.0576996252       14.8062318466
  C        19.5012714619       13.3858989720       14.5071850501
  N        14.1498169083        7.6378691570       14.4273713626
  C        13.6546527312        7.9035474278       16.6406252370
  C        13.5974205251       10.0599986321       17.7983186608
  H        13.8466059085       11.8506397080       16.5805981164
  H        14.1706710219       10.1233851151       -1.5796209856
  H        13.1331746935       11.6638241702       -1.6524132620
  H        12.5766122999       10.2800799737       -2.3772767679
  S        19.4497188044       14.3836948401       -1.8866954872
  C        18.9088688470       16.9248574060       -2.6284520366
  H         9.9350973846       13.2602854089       11.4128197196
  H         9.4201061928       14.8782227140       11.1418923645
  C         9.7698889711       13.7430594225        9.3018656237
  H        19.5274189321       12.5379169561       13.8379128886
  H        19.6003498263       13.0128473679       15.4958541824
  C        20.6364218342       14.5238177577       14.3334437379
  S        13.9832408347        6.1393403879       15.0849671328
  N        13.6783798537        6.4748564931       16.5996046528
  C        13.4559422287        8.6154878191       17.8993964359
  H        13.6808004243       10.6684808644       18.6869832290
  C        19.6089861988       14.9900253053       -3.5356154908
  N        19.3141076818       16.2885163597       -3.7488019617
  O        18.6720825154       18.1166768163       -2.5400407605
  H         9.9002082357       14.5809860533        8.5842957805
  H        10.4860453711       12.9244682434        9.0987154189
  C         8.3736519175       13.1564531730        9.2039539826
  H        21.6335930739       14.0367958112       14.4318617338
  H        20.6521345790       14.9886689794       13.3823598575
  C        20.6048390555       15.5857395433       15.4601957582
  C        13.2015757813        7.8050453631       19.0673532397
  S        20.4400573472       14.0273068570       -4.7522149561
  C        19.1624737979       16.9172943614       -5.0299744629
  H         8.2295399635       12.5807274113        8.2631264641
  H         8.3748466930       12.4105874274       10.0417046039
  C         7.2827289513       14.1982935315        9.4444516025
  H        21.3425809556       15.3647816541       16.1710153035
  H        19.6764974467       15.5985213384       16.0227080287
  C        20.8299486174       17.0112267264       14.9516976341
  H        13.3780224349        6.8228658383       18.9747042564
  C        12.6957943408        8.2883153585       20.2557395939
  H        19.6360426575       16.4006272947       -5.8240890924
  H        19.7384346699       17.8704314488       -4.9890292972
  C        17.7195347773       17.1130659838       -5.3706647806
  H         6.7975534836       14.3477376061        8.4392305802
  H         7.6401384860       15.1987590617        9.8849008521
  C         6.4235873031       13.6411709860       10.6026970015
  H        20.8168466991       16.9797708705       13.9082097532
  H        19.8646477844       17.6222744752       15.2494066585
  C        22.2323420345       17.5783605855       15.2855672201
  S        12.2231663028        9.9243404212       20.5443721519
  C        12.4491699490        7.3036062014       21.3193880358
  H        17.4193157855       16.3038418834       -5.9953378844
  H        17.5190651754       17.9491066047       -6.0118681534
  H        17.1081924846       17.1763270669       -4.4823727003
  H         6.6209267067       14.1443240513       11.4937493289
  H         5.4253178153       13.7941607315       10.3186917761
  H         6.6331730547       12.6119319331       10.8399552237
  H        22.3540884619       18.6106984729       15.1552579748
  H        22.5097637916       17.2590767083       16.2596742054
  H        22.9498863597       17.1759401699       14.5577332011
  C        11.5989313507        9.2954586255       22.0675581002
  N        11.7924887291        7.9189916040       22.2661836750
  O        12.8510316402        6.1319078904       21.2534736729
  S        10.7158256297       10.1427170568       23.3856816404
  C        11.5759902854        7.1530635125       23.5044738972
  H        11.2915290420        6.0897830162       23.2828574133
  H        10.8486791977        7.6001452984       24.1524461403
  C        12.8666932165        7.2425811181       24.3091304480
  H        13.7881234112        7.0034654017       23.8551228266
  H        12.8395399305        6.5290366148       25.1218866367
  H        13.0846561874        8.1680314802       24.7776827719
