352
 i =     7800, time =     7800.000, E =        25.0638403065
  H        12.6150665257        6.8705950521       32.1284687771
  C        12.0494306755        5.9477124932       32.1544131667
  H        12.7948975941        5.1913142069       31.9121739309
  C        10.9555449242        6.1502094252       31.0840511901
  C        11.4673833132        5.7937405743       33.5544249474
  C        11.6054169543        5.8215888785       29.7411539619
  H        10.1432627267        5.4476923747       31.3217495268
  H        10.4950651091        7.1457626565       31.2173509024
  H        10.5916878726        6.4653340780       33.6129412720
  H        11.2003159973        4.7746108035       33.8220839991
  H        12.1377446677        6.2691283366       34.2302110456
  C        10.5212772191        5.4995306175       28.7868430559
  H        12.3237115283        4.9946068034       29.8707067745
  H        12.1231044286        6.7118726085       29.4352675963
  C        11.0151631664        5.3013280071       27.3821028184
  H         9.8854591659        4.6673602091       29.0011846685
  H         9.7902925563        6.3160495620       28.8075541137
  C         9.9653631236        4.7084124519       26.4299335063
  H        11.8681861299        4.6055080349       27.4274145729
  H        11.5044196798        6.1617732573       26.9230096387
  C         8.7335542995        5.6046264737       26.1299502099
  H        10.4898962575        4.3083214065       25.5120506142
  H         9.5834608654        3.8674784313       26.9721483772
  C         7.5219566724        4.8965888967       25.5044347868
  H         8.3966626715        6.0790003448       27.0458091113
  H         9.0770114261        6.4121243237       25.5577591955
  C         7.1515495490        3.6020383352       26.1910018416
  C         7.9215864843        4.1245280425       24.3089399184
  C         6.3776595530        5.8529431090       25.2272840575
  C         7.2380138013        2.4734525783       25.4061713643
  C         6.6499457604        3.3845485859       27.4179984350
  C         7.7711338357        2.7977172830       24.1923954394
  C         8.3650585334        4.8279907737       23.1643901727
  H         6.7311305021        6.5449717804       24.5206069261
  H         6.2896755406        6.3776870512       26.1614924255
  C         4.9841998191        5.2460766940       24.8211614573
  S         6.6801667006        1.0829710712       26.2275883659
  C         6.4291741937        2.0558880533       27.7025708025
  H         6.4980538725        4.2223811444       28.1088781010
  C         8.1596628215        2.1292707589       23.0579396054
  H         8.3561074049        5.8942402676       23.2373905962
  C         8.5795485491        4.1999854986       22.0405136800
  H         5.2219044731        4.7620386653       23.8989551005
  H         4.8044005803        4.5167664538       25.6462861904
  C         3.8912997184        6.3169935089       24.7804213318
  C         5.9346730906        1.4949757391       29.0417057814
  C         8.4974551051        2.8442100110       21.9139759298
  H         8.1476087995        1.0850345470       23.0615040931
  C         8.9354600160        4.5873481478       20.7667011827
  H         3.1968461108        6.0485591421       24.0367688701
  H         4.2208611276        7.2674986069       24.4211476070
  C         3.2903392105        6.4487716404       26.0835363371
  C         5.8193405899        0.1320793358       29.3556894338
  C         5.6285333863        2.4206720976       30.1572748203
  C         8.8799028452        2.1275369799       20.6069658445
  C         9.1322363596        3.4829571533       19.9037186076
  S         9.1992755913        6.0515652729       19.9758870392
  H         2.9487110815        7.5384637701       26.2050759829
  H         4.0162467881        6.5390633955       26.8561461492
  C         2.2834952065        5.4258767971       26.5276391030
  N         6.0424158166       -0.8874460646       28.4240186136
  C         5.6720080112       -0.2623217541       30.6683241380
  C         5.2914651753        2.0177736363       31.4495538248
  H         5.6302292252        3.4114028979       29.9015576386
  C         7.7337430130        1.2508585790       19.9723909815
  C        10.1731733882        1.2682648471       20.6714877892
  C         9.6337946316        3.8411325746       18.6304621994
  C         9.6839263822        5.2232810262       18.5268279683
  H         1.6381728901        5.2591598502       25.6708988604
  H         2.8135520394        4.5113927533       26.7060967052
  C         1.4883159911        5.7742601712       27.7311575702
  S         6.1502735274       -2.2477469382       29.2663563627
  N         5.7083068922       -1.6570289153       30.6945853337
  C         5.3406618302        0.5509543809       31.7244414040
  H         4.9212998592        2.7334976216       32.2412837173
  H         7.5959939081        0.3280509145       20.5400466448
  H         8.0988857857        0.8166778672       19.0019141888
  C         6.5418305613        2.1546808251       19.6197613141
  H        10.5324872912        1.0150865043       19.6576728780
  H        10.1143687630        0.3523398105       21.2759743413
  C        11.3648109677        2.0622748825       21.2966766128
  H         9.7058903630        3.0334885972       17.9453140116
  C         9.9154773795        6.0179732004       17.3135995045
  H         0.7701487493        4.9622299042       27.9383933148
  H         0.8852512249        6.6578596432       27.5636342254
  C         2.3795269260        6.0347263334       28.9801910599
  C         5.1481588786       -0.0202113549       32.9870840813
  H         6.8287827645        2.7232917309       18.7750933582
  H         6.2325536874        2.9373840583       20.3430742085
  C         5.3282906959        1.2854535079       19.3055876022
  H        11.1257544365        2.2630132501       22.3295336645
  H        11.4751254319        3.0352035607       20.8066852474
  C        12.6696989463        1.2787348657       21.3563362414
  C         9.9920413367        7.4012638792       17.1789693022
  C        10.2466252316        5.2578353798       16.0792339076
  H         2.9716947345        5.1727044557       29.2280699660
  H         2.9438939005        6.9122104951       28.7696292498
  C         1.5928198976        6.2867139671       30.1880999537
  H         5.1058204945       -1.1107513360       32.8923669449
  C         4.9335855162        0.4940411379       34.1937571382
  H         5.1378419666        0.7822339757       20.1942236123
  H         5.5980908144        0.6639395672       18.4548589530
  C         4.0965622966        2.1985707863       18.8799247462
  H        12.4684421139        0.4722538550       22.0458827760
  H        12.7357697819        0.7756932557       20.3735437128
  C        13.7589490210        2.2252004355       21.6459597853
  N         9.6840144133        8.3869364387       18.1317799731
  C        10.2948648572        8.0647294737       15.9671319179
  C        10.5109776914        5.8997418429       14.8918604781
  H        10.1128695762        4.1621946989       16.0295374331
  H         1.2338698592        5.2970134311       30.6365276808
  H         2.2047626485        6.7556045336       30.9519620055
  H         0.7954232273        6.9626183578       29.9218158499
  S         4.6098313516        2.1699626211       34.5747002119
  C         4.8485990034       -0.5216486119       35.2541590519
  H         4.3323314901        3.1994942565       19.2496305981
  H         4.2350825183        2.2788424726       17.8530223443
  C         2.6715125158        1.6361740668       19.1310875295
  H        13.4379609732        3.0122079758       22.3902780075
  H        13.8856060852        2.8606877336       20.7831904063
  C        15.0271954641        1.4799142951       22.1608416512
  S         9.7584134542        9.8845636415       17.4892380440
  N        10.2608689356        9.4358455079       16.0458517967
  C        10.6450161295        7.3333615577       14.7977543225
  H        10.8053403591        5.3227726907       13.9625313701
  C         4.0909914969        1.4995356958       36.1479337460
  N         4.2729124885        0.1225438302       36.3130759369
  O         5.1273214216       -1.7108683750       35.1540121917
  H         1.9164645593        2.4477165858       19.3038313627
  H         2.5733697442        1.0019297665       19.9590203098
  C         2.3080804534        0.7576467307       17.9073345743
  H        14.7501730467        0.5466612196       22.7378834335
  H        15.8051618390        1.2464403155       21.3778502962
  C        15.7698912440        2.5268903790       23.0947684840
  C        10.7487603545        8.0817970513       13.5776250359
  S         3.5388980135        2.5241854610       37.5102600904
  C         4.1145939227       -0.4997975906       37.5852020751
  H         1.2655955432        0.5566977147       17.9432270239
  H         2.3891639145        1.4006703274       17.0911170966
  C         2.9434130016       -0.6317405244       17.7922650810
  H        15.1323822384        2.8481525713       23.9538172415
  H        15.8877311982        3.4096961640       22.4081669864
  C        17.1052316743        2.0373712576       23.6181649630
  H        10.3572565940        9.0252656131       13.5443499412
  C        11.2698545387        7.8723189679       12.4095804055
  H         3.4316170175        0.0654654601       38.2799599686
  H         3.5773877587       -1.4293403823       37.4589144782
  C         5.5042087700       -0.5476782888       38.2049176302
  H         3.0584309001       -1.0680716848       18.7701983663
  H         3.8705037180       -0.4661276331       17.2639940153
  C         2.0925826317       -1.6593668449       16.9629748592
  H        17.4567647150        2.4777746085       24.5505712431
  H        17.0175194471        0.9994857123       23.8361391429
  C        18.1401112608        2.1425016207       22.5495193182
  S        11.7987547930        6.4275769875       11.8064808911
  C        11.3489810443        9.0485059603       11.5034079224
  H         5.6308762108       -0.1571114862       39.1552735161
  H         5.8061929635       -1.6037394746       38.3541913440
  H         6.1032005871       -0.0692311039       37.5570059913
  H         1.1400720937       -1.7967290156       17.4758545915
  H         2.6353660264       -2.5744260288       16.9656097874
  H         1.9249435092       -1.3527505493       15.9339595046
  H        19.1226215059        2.2157772433       22.9766130665
  H        18.0207489789        3.0548608223       21.9250799048
  H        18.1221734543        1.2549040777       21.8532542908
  C        12.0769437881        7.2887780721       10.2956912400
  N        11.9544324438        8.6345622937       10.3797194319
  O        10.9710057282       10.1751941208       11.7419824129
  S        12.8935315453        6.5014605424        8.9545204487
  C        12.2770267579        9.5116091746        9.2671589137
  H        12.6853401120       10.4757179264        9.5969501281
  H        13.0440451225        9.1802642492        8.5916649724
  C        11.0610244688        9.8326647418        8.4419784889
  H        10.2483932132       10.1479940617        9.1423040472
  H        11.1498770823       10.6573119407        7.7849234809
  H        10.6792024374        8.9473476162        7.8345131178
  H        20.9861758870       10.2610799463        4.0425804764
  C        21.9519627903        9.7110527811        4.1125978828
  H        21.8157186157        8.6479300843        4.3038081581
  C        22.7462865409       10.2831561072        5.2878745881
  C        22.6099960997       10.0063858878        2.7616774787
  C        22.0498899027       10.5452543376        6.5861767907
  H        23.5958653500        9.5807510515        5.4915098126
  H        23.1908168079       11.2184388538        4.8851400016
  H        23.5212021136        9.4330759651        2.5325524164
  H        22.8024913883       11.0562745006        2.4491793890
  H        21.8403294539        9.7180139837        2.0431505434
  C        21.1813236577        9.4202022196        7.1554014134
  H        22.7186702293       10.9479456168        7.2745730079
  H        21.4606013996       11.4150801900        6.3757085627
  C        20.3379411951        9.7166849417        8.4130819280
  H        21.8090254171        8.5482659145        7.2296566207
  H        20.4545551831        9.0495743515        6.3809015448
  C        19.2386691067       10.6607404398        7.9587232212
  H        20.8638395849       10.2892249056        9.1560229458
  H        19.9920948291        8.7979410514        8.8265142517
  C        17.9982502540        9.9791311373        7.3769820671
  H        18.9563206152       11.2663124955        8.8449225524
  H        19.6257612743       11.4842905981        7.3681609533
  C        16.7489943936       10.8888907870        7.1767883460
  H        17.7312118771        9.1395198225        8.0299764133
  H        18.4139213351        9.5374936496        6.4447803672
  C        17.1555342939       12.2003502466        6.5350235108
  C        16.2304260078       11.6189544029        8.3440128408
  C        15.6002407849       10.1046997665        6.5014005165
  C        16.8823884396       13.3322324043        7.3176726641
  C        17.6683067798       12.5434450249        5.2539264656
  C        16.2035189985       12.9724854202        8.4743298374
  C        15.6180971907       10.9322605568        9.3608408993
  H        16.0816181549        9.7916416427        5.5852331309
  H        15.3454789080        9.3125886205        7.1736830117
  C        14.2979609931       10.9423850008        6.2468832477
  S        17.3224194519       14.8305394116        6.4799566139
  C        17.8341336646       13.9245711184        5.1286700547
  H        17.8257225915       11.7699807320        4.5775263307
  C        15.7475052079       13.5729906728        9.6004596304
  H        15.4097895187        9.8770669949        9.2387237405
  C        15.2510807783       11.5316338132       10.4965389310
  H        14.4965184503       11.9562926251        5.8752567878
  H        13.7271926302       11.0035705346        7.2036008139
  C        13.3979902751       10.2755085786        5.2245417677
  C        18.1757133801       14.5820786682        3.8439511069
  C        15.3361587369       12.8627652335       10.7122781847
  H        15.8391366276       14.6347248953        9.7342654201
  C        14.8677981043       11.1095942692       11.7505625921
  H        12.3672537077       10.5242104793        5.3288110114
  H        13.3761599058        9.1960658972        5.4026522611
  C        13.7968480358       10.6139784704        3.8235693096
  C        18.1773164659       15.9679047327        3.4849484033
  C        18.4583292566       13.6637782177        2.7160157261
  C        14.9003627040       13.5363067665       11.9134433730
  C        14.6597388838       12.1996212510       12.6115277989
  S        14.5504017616        9.5319687941       12.4637747275
  H        14.8236165537       10.5782901352        3.5494445879
  H        13.6126512363       11.5944249582        3.8283615063
  C        12.9518092851        9.7757291095        2.8493558252
  N        17.9704770932       16.9627225015        4.4490645108
  C        18.4500272999       16.4270344060        2.2378495278
  C        18.7547768827       14.0762192837        1.4181819008
  H        18.4746201049       12.5933013712        2.7652599571
  C        13.5145313793       14.2649856557       11.9333292161
  C        15.9955040085       14.2956710577       12.6832483222
  C        14.2089897487       11.6780650609       13.8839868554
  C        14.2278584060       10.2770271105       13.9901051288
  H        12.8527693682        8.7517391460        3.2267877466
  H        11.9123495555       10.0378031375        2.7940632601
  C        13.6724693469        9.6771372795        1.5071055135
  S        18.0200923151       18.3785800877        3.6764498538
  N        18.3316710517       17.8566724643        2.1566605249
  C        18.6506848412       15.5311684132        1.1275153723
  H        18.9496641891       13.3320277418        0.6616770456
  H        13.6362815071       15.0595270861       11.2749179252
  H        13.3207103846       14.6585929325       12.9249463161
  C        12.3056594695       13.4525971543       11.5001061937
  H        16.3204994136       15.1777445126       12.2017305330
  H        15.4634156165       14.5330975715       13.5875278333
  C        17.2043954153       13.4464310316       13.1063772942
  H        14.0425666799       12.4242172092       14.6589197445
  C        13.8159518018        9.4642335095       15.1673351542
  H        14.4267215931        8.8598738226        1.3799607536
  H        14.3611619229       10.5217286156        1.4925895175
  C        12.7739235974        9.6590329532        0.3272161476
  C        18.9262415434       16.1323105496       -0.1236148013
  H        12.5436923089       12.7079064176       10.7243084629
  H        11.9839390078       12.8916843264       12.3496431685
  C        11.1895510030       14.3304026839       11.0817498288
  H        17.5495659630       12.8146493913       12.2460835231
  H        16.9608207922       12.7458150097       13.8926004505
  C        18.3035007515       14.3658245312       13.5640802149
  C        13.8875660351        8.0648967811       15.3053610179
  C        13.4351491327       10.2711163886       16.3877602550
  H        12.3786062633        8.6083459518        0.2743226440
  H        11.8704204140       10.2879399144        0.4584218844
  C        13.4151278248        9.9583877548       -1.0218773303
  H        18.9146720835       17.1520279384       -0.0544475788
  C        19.2667492611       15.6257108355       -1.3131439772
  H        11.4986155721       14.8675661309       10.1864726170
  H        10.8734357883       15.1260046203       11.7666756231
  C         9.8970057578       13.5617492921       10.8799259821
  H        18.6748965325       14.8782453828       12.7055514265
  H        17.7172123502       15.1022970808       14.1852165456
  C        19.3228678568       13.6909471679       14.3554692772
  N        14.2521279638        7.1484958365       14.2556762768
  C        13.5385989637        7.3898737133       16.4694002264
  C        13.0029140884        9.6413902428       17.5584181365
  H        13.3281612991       11.3726904867       16.3185060125
  H        13.6323553315       11.0086961560       -1.0999826366
  H        12.7570855880        9.7032020494       -1.8466956377
  H        14.3610035524        9.4297499745       -1.2759778498
  S        19.5813975938       14.0615311712       -1.7988375200
  C        19.4661576755       16.6523648901       -2.4178715331
  H        10.0215465058       12.5121094087       11.2039636746
  H         9.0326106304       14.1136645317       11.3005820829
  C         9.5312770874       13.3650928461        9.3990681702
  H        19.5585949107       12.7461235755       14.0129414546
  H        18.8828173234       13.5596060058       15.3933488247
  C        20.6840510913       14.4983019221       14.4066543767
  S        14.2663725661        5.6557848051       14.8544119065
  N        13.7412678310        5.9909437373       16.3516111323
  C        13.1997007194        8.1207711457       17.6065951252
  H        12.6893080298       10.2630904532       18.3520716135
  C        19.9861268374       14.6980411169       -3.4056225841
  N        19.8746498491       16.0125559923       -3.5512245714
  O        19.2457791666       17.8021950342       -2.2692684293
  H         9.6607205082       14.3264511712        8.8453536622
  H        10.2091070675       12.6356721587        9.0088981285
  C         8.0455119381       13.0227916154        9.3308174950
  H        21.4338807386       13.7231677205       14.6902749935
  H        20.8022522895       14.8791518535       13.4381437244
  C        20.6675869849       15.7474393491       15.3193101112
  C        13.0224542961        7.3284007557       18.7337181957
  S        20.2834257774       13.6299243338       -4.7428155627
  C        19.9955745938       16.6312943244       -4.8558133721
  H         7.8821457868       12.3566175525        8.4665569106
  H         7.8287082872       12.4411734565       10.2400236242
  C         7.0585076337       14.1790489701        9.1046960273
  H        20.8070780303       15.5274480227       16.2935105474
  H        19.7098354637       16.3128428366       15.3765051826
  C        21.6771183587       16.8399165096       14.9822560054
  H        13.3855463833        6.3951297485       18.6841038637
  C        12.5189708388        7.6385957222       19.9623937875
  H        20.7953463480       16.1508359519       -5.3980883226
  H        20.1524867103       17.6698007539       -4.5649766376
  C        18.6990871380       16.4234397964       -5.5800500082
  H         7.4316604747       14.6861785770        8.1671173425
  H         7.1519974447       14.8566709121        9.9386608863
  C         5.6477631151       13.6719979886        9.0140566998
  H        21.6396639731       17.5209546386       15.8689897622
  H        22.6330966168       16.3849457399       15.1103494431
  C        21.5498412639       17.5180357376       13.6284998518
  S        11.8930874982        9.0718670598       20.5454601893
  C        12.3874378446        6.4389582939       20.8141112511
  H        18.0087359502       17.2787060777       -5.3326820833
  H        18.2179011354       15.4909695830       -5.2734219369
  H        18.8004872990       16.2944614484       -6.6806636776
  H         5.4477198921       13.0649601705        8.1282954691
  H         5.3365032595       13.0831343041        9.8244895989
  H         5.0387761676       14.5749440699        9.0568045027
  H        20.4732068544       17.6285362605       13.3174859338
  H        22.0258869576       18.5032311170       13.5477127811
  H        22.0623592930       16.8030614298       12.9690167273
  C        11.7467359703        8.2610973974       22.0523020285
  N        11.9627784802        6.9137908654       21.9949284267
  O        12.8122069315        5.2875249234       20.6002196741
  S        11.2744509307        9.1201464001       23.4949919730
  C        12.0675786615        6.0442184610       23.1620734781
  H        11.8047974792        4.9769166403       23.0535555611
  H        11.3217608768        6.4012939254       23.9116425428
  C        13.4999864928        6.0596005073       23.7042222063
  H        13.8829388317        7.0049859863       23.8337328309
  H        14.2080819375        5.3859024527       23.1904122799
  H        13.4522531399        5.6367298685       24.7116936707
