352
 i =    62700, time =    62700.000, E =        25.3041969503
  H         9.3171463048        5.7962086272       31.5869046737
  C        10.1738939673        6.2314668368       32.1651135574
  H         9.7266441216        7.0202328198       32.7604104552
  C        11.0917497977        6.9267931039       31.1253043213
  C        10.8200463156        5.2434526731       33.1735352785
  C        11.4422865052        5.9747306457       29.9401385856
  H        10.6336104655        7.7968993269       30.6690972922
  H        12.0831588255        7.1772385060       31.4636012944
  H        10.1017420962        5.1496338814       33.9349059476
  H        11.0370351448        4.3194504330       32.7192717284
  H        11.6984433463        5.7263811830       33.5712064832
  C        10.1474744867        5.7147155145       29.0565233838
  H        11.7135476542        5.0384106842       30.4206759484
  H        12.1940007467        6.3197848341       29.2871771481
  C        10.5455919131        5.5544748539       27.5863283303
  H         9.8372879936        4.7174806680       29.4430257478
  H         9.3861571029        6.4859075612       29.1199665101
  C         9.5228630539        4.9044216358       26.5623886225
  H        11.4017180689        4.8936835173       27.5821532782
  H        10.8809024817        6.4691573659       27.1310707729
  C         8.4010560971        5.8386379756       26.0816267002
  H        10.0581669012        4.4458444412       25.7041324151
  H         9.0915326608        4.0140453053       26.9281391293
  C         7.2361803028        5.0843780110       25.3018423011
  H         7.9095013387        6.3048282752       27.0157254885
  H         8.6688952197        6.6585627920       25.3941446165
  C         6.7941458424        3.7325724674       26.0553020092
  C         7.7166917436        4.3032444236       24.1461352870
  C         5.9821716310        6.0172338160       24.8370558710
  C         7.1124856207        2.6281128776       25.2789870286
  C         6.2052003943        3.3437937276       27.3038904673
  C         7.7497358814        2.9881915931       24.1352074529
  C         8.1542462270        4.9707050317       23.0149186765
  H         5.4290806302        5.3765527201       24.2005754254
  H         6.1855285111        6.9038985618       24.2780174135
  C         4.8664153535        6.3397095744       25.8299631130
  S         6.8912105862        1.1035811671       26.1428594602
  C         6.1748786128        1.9837896265       27.4383605740
  H         5.9162722942        4.0283435646       28.0668733747
  C         8.2466363680        2.3635674861       23.0106502830
  H         8.0464077086        5.9976606546       23.0522921476
  C         8.5726064988        4.4162054034       21.8490079816
  H         4.9868489230        5.6075602407       26.6288627179
  H         5.2583556432        7.2076383871       26.3960621244
  C         3.4746324422        6.4120259327       25.1653774607
  C         5.6723490496        1.2153104123       28.6523730592
  C         8.7302658750        3.0235189392       21.8583603185
  H         8.2501990629        1.2495718439       23.0181790784
  C         8.9844209890        4.7754891211       20.5671272099
  H         3.2919943613        5.5204277502       24.6371061489
  H         3.5186328700        7.2882226098       24.4562599488
  C         2.3275567912        6.6045017044       26.0871792416
  C         5.7301206952       -0.2123959996       28.8543712257
  C         5.0570328879        1.9864415611       29.7984369869
  C         9.1466958035        2.3139844461       20.6023710421
  C         9.3054188630        3.6813243388       19.8304331219
  S         9.2063997460        6.3027559298       19.7650546865
  H         1.5119952268        7.1146663294       25.5219657642
  H         2.6298839960        7.1769821985       27.0173696278
  C         1.7430392214        5.3190177133       26.5854785130
  N         6.2732925931       -1.2549742967       27.9952019438
  C         5.5505264729       -0.7158354519       30.1642758240
  C         4.6408538399        1.4506329356       31.0111980612
  H         4.9389545788        3.1319586841       29.6529395863
  C         7.9868828230        1.4902864127       19.9593385664
  C        10.4774915262        1.4975550354       20.6596974220
  C         9.7745829156        4.0405079741       18.5857974006
  C         9.8204883839        5.4166793983       18.4418045486
  H         0.8143260640        5.1399644958       25.9740926026
  H         2.4665546534        4.5024951331       26.4039144107
  C         1.2433586035        5.2848940978       28.0157324936
  S         6.0623339333       -2.6943086587       28.7926239856
  N         5.7965059727       -2.0773031840       30.2392299580
  C         4.9647051947       -0.0361931455       31.2347830566
  H         4.2355678153        2.0395779761       31.7806487968
  H         7.7334353489        0.7001995803       20.6384953420
  H         8.2723922702        0.8860912396       19.1226475804
  C         6.6341873875        2.3230047037       19.7200601857
  H        10.6905275441        1.2098595674       19.6823441826
  H        10.5735172123        0.6558726297       21.3105629202
  C        11.5380363579        2.5018148342       20.9724524411
  H        10.0969648997        3.2888133715       17.9760612736
  C        10.2124657854        6.1940789522       17.1656350178
  H         0.5938935972        4.3773780491       28.2806331895
  H         0.6548012461        6.1606357579       28.0010270954
  C         2.3828317905        5.3330386803       29.0960891315
  C         4.7619714990       -0.7626614099       32.4489295399
  H         6.6060767138        2.7920866507       18.7189817190
  H         6.4982055256        3.1481906506       20.3732397892
  C         5.3738376093        1.4510199863       19.6882846600
  H        11.2442767347        3.2839246269       21.7153525750
  H        11.8319823252        3.0904631724       20.0112750539
  C        12.8203302086        1.8335166850       21.3282868747
  C        10.2214665335        7.6275992060       17.0000327201
  C        10.5481815153        5.4191273534       15.9538444101
  H         2.8378294076        4.3324444242       29.0934809136
  H         3.2615314649        5.8836145165       28.8136464462
  C         1.7320456632        5.7650827835       30.4971674317
  H         4.6802848279       -1.8640440926       32.3817073312
  C         4.4534037721       -0.3798536433       33.7084524074
  H         4.5066815936        2.1676965629       19.8189113556
  H         5.4626746504        0.8012672588       20.4876820943
  C         5.1525003243        0.7225436358       18.3270255595
  H        12.5776832383        1.0198864276       21.9934520298
  H        13.3372114148        1.3713979001       20.4358330318
  C        13.7322374260        2.7635335943       22.0622463072
  N         9.8272884690        8.4945856895       18.0889478382
  C        10.6187222816        8.3114877643       15.8548638014
  C        10.9081308833        6.0875109568       14.7611819176
  H        10.5353322315        4.3147727162       15.9926273809
  H         0.9019581660        6.4709707976       30.4144608760
  H         1.1686219924        4.9736658959       30.9020500583
  H         2.4954833357        6.1150673732       31.2374535282
  S         4.3105023135        1.3069191203       34.2648787757
  C         4.2390082719       -1.3982114023       34.7590449504
  H         5.2120772361        1.5071002439       17.5584062297
  H         6.0708589811        0.1624866840       18.1588019557
  C         3.8635280360        0.0396190785       18.1712160702
  H        13.0920451071        3.4488734643       22.5714223898
  H        14.3895718188        3.3073562443       21.3971109780
  C        14.5688092117        1.9242698233       23.0545595964
  S        10.1251406013       10.0205386444       17.5440319301
  N        10.5504655876        9.6746781667       15.9850854385
  C        10.9868202423        7.5592673580       14.6884968624
  H        11.0348292087        5.5091223924       13.8559509546
  C         3.9855074354        0.5920987216       35.8577811958
  N         3.9680746262       -0.7504991890       35.9321767351
  O         4.2987300576       -2.6564888541       34.5290175473
  H         3.0836192821        0.8089419610       18.4333245611
  H         3.8571977608       -0.7126341090       18.9599869878
  C         3.5425233385       -0.4595430988       16.7419400269
  H        14.0682401795        1.6828416129       23.9652538843
  H        14.7524682412        0.9327389216       22.6958019030
  C        15.6646582255        2.7502911363       23.6506099181
  C        11.2707973527        8.3375386956       13.5533103367
  S         3.4789404299        1.4499223521       37.3360923663
  C         3.8615498051       -1.5805237982       37.1486038915
  H         3.1101504978        0.4116534182       16.1729123831
  H         4.3679539938       -0.9297685400       16.2493825608
  C         2.3615928361       -1.4401991058       16.7415530872
  H        15.1600152433        3.3338324676       24.4590891138
  H        16.0138852801        3.3635992029       22.8456333281
  C        16.8575792129        1.9955082817       24.0971951135
  H        10.9333491133        9.4404641211       13.6158162871
  C        11.7336735713        8.0174652020       12.3143719263
  H         3.1271754198       -1.1978091528       37.8154809717
  H         3.4462039929       -2.5916193838       36.9905823628
  C         5.2083921543       -1.5755214089       37.8219157369
  H         2.2867333450       -1.8696156643       15.7464225693
  H         1.3830892207       -1.0582482417       16.8993860583
  C         2.4748648060       -2.6511241048       17.6828761766
  H        17.2313519394        2.4010833880       25.0304071408
  H        16.5938263704        0.9896160548       24.4441218534
  C        17.9544257464        2.1966957134       23.1131885147
  S        12.2446674895        6.4702990105       11.7379655256
  C        11.6751496937        9.1390896392       11.3454407924
  H         5.5208066489       -0.6179458237       38.0567835357
  H         5.2909122568       -2.2847621502       38.6381297311
  H         5.8642074720       -2.0200570022       37.0380974451
  H         3.4372084991       -2.6250129756       18.1946614276
  H         2.1398432629       -3.5868424902       17.1116054162
  H         1.7634964478       -2.5142950966       18.4995356198
  H        18.7931804785        1.6503145226       23.4516952853
  H        18.2483116103        3.2171920019       23.0217011352
  H        17.6727774656        1.9130762158       22.0531739907
  C        12.4958705350        7.2680109340       10.1930588781
  N        12.1268752868        8.6195638888       10.1430553945
  O        11.2505111257       10.3215671006       11.5692154174
  S        13.0258240074        6.4149692880        8.6862058574
  C        12.2133392821        9.4405314465        8.9696947834
  H        12.4883425684       10.4151793319        9.2909805911
  H        13.0382962358        9.0334886375        8.4162435501
  C        10.8702710458        9.3066286631        8.2779660089
  H        10.4006052032        8.3527829020        8.4547688885
  H        10.1466055349       10.0757554040        8.6295665686
  H        10.9582095419        9.5191985522        7.2091441901
  H        22.3544397251        9.5350201243        4.2492347719
  C        22.6942570839       10.5718158100        4.1405967036
  H        23.5222739354       10.6305091399        3.3368678663
  C        23.2063891060       11.0773710065        5.5534803209
  C        21.5308273033       11.4065157192        3.6929840701
  C        22.1535864262       11.0199468706        6.7265359043
  H        24.0143499592       10.3455469440        5.7700965716
  H        23.7143796127       12.0292719253        5.4524368279
  H        20.6211122254       10.7810394111        3.8756573289
  H        21.5244479337       11.6922027899        2.6423746735
  H        21.5061542483       12.3022061344        4.3329506223
  C        21.4515614177        9.7250183553        6.7319427315
  H        22.7234025127       11.1391414405        7.6256027662
  H        21.4923819010       11.8729875156        6.6136516534
  C        20.4427790357        9.4754157366        7.8498189559
  H        22.1296219353        8.8928234007        6.7073862809
  H        20.7847198814        9.6431748317        5.9053774872
  C        19.2666531848       10.4898825187        7.7798199593
  H        20.8995964040        9.6059170112        8.8117544316
  H        20.0342609655        8.4333642976        7.8627552434
  C        17.9632083062        9.8402290923        7.3240223938
  H        19.1026605505       10.8384488075        8.8161094395
  H        19.5139228369       11.2589005338        7.0607865408
  C        16.8112606817       10.8365302117        7.0342554007
  H        17.5657019783        9.1627156535        8.0957730664
  H        18.2280281376        9.4092811848        6.3831555172
  C        17.2371806351       12.1584302198        6.4100769866
  C        16.2786134901       11.6049975582        8.1893568072
  C        15.7376312468       10.1203780642        6.1824312956
  C        17.0285407650       13.2927340500        7.1646822901
  C        17.7831085189       12.4596359229        5.1228851726
  C        16.4115244527       12.9558818919        8.3518767038
  C        15.7953872759       10.8995522011        9.2323292173
  H        16.1575524509        9.8444678153        5.1857740896
  H        15.4362172317        9.1488184686        6.5541252047
  C        14.5025909764       11.0735980927        5.8212917004
  S        17.7016397082       14.7106172684        6.4520533763
  C        17.9454817190       13.8438046071        5.0003833498
  H        17.9361211779       11.7007969350        4.4181570446
  C        15.9584347623       13.5068501569        9.5453881527
  H        15.6239072317        9.8507195506        9.1170174471
  C        15.4409535965       11.4769653177       10.4462225353
  H        14.7847510145       11.9519115268        5.3184704374
  H        14.0904947178       11.4904071439        6.7502085747
  C        13.2478591661       10.4230486714        5.0966332866
  C        18.3590474766       14.5587682182        3.7467862990
  C        15.4787571860       12.8046629205       10.6097949168
  H        15.7196789737       14.5105037143        9.6063685446
  C        15.0315993972       11.0536154118       11.7159819906
  H        12.2974107396       10.9128810409        5.4489453257
  H        13.0715119464        9.4113572087        5.4485300513
  C        13.3755992170       10.3982602022        3.5595975820
  C        18.2063999542       15.9354026370        3.5539843426
  C        18.9285720168       13.8033748252        2.5706474378
  C        15.0856064420       13.4589950903       11.8789763725
  C        14.8986201558       12.0941706066       12.5519419510
  S        14.6921053175        9.4790938073       12.4948898786
  H        13.9461741852        9.4444081415        3.4778297974
  H        13.9393811931       11.2766898643        3.3165284218
  C        11.9918013814       10.2245512847        2.8321403784
  N        17.9464032838       16.8485027314        4.5625745580
  C        18.4247869284       16.4710855218        2.2813715441
  C        19.1545793196       14.3486734175        1.3149067801
  H        19.2246403422       12.7835168408        2.7789122141
  C        13.7636496093       14.1798024434       11.7057541079
  C        16.2174856816       14.3460439096       12.5075225438
  C        14.6785350724       11.6344733291       13.8691754328
  C        14.5258230815       10.2658827749       14.0144155151
  H        11.3052682017        9.6749489071        3.4396794154
  H        11.6453546423       11.2469453101        2.7331250457
  C        12.0317329279        9.6555116572        1.4299845548
  S        17.8255037788       18.2848224248        3.8454819104
  N        18.3202398712       17.8644038475        2.3165234699
  C        18.9117530458       15.7908774506        1.1024263199
  H        19.5631868537       13.6488594381        0.6508699733
  H        13.7546967362       14.7342387700       10.7931314234
  H        13.7193330562       14.8466594808       12.4353382264
  C        12.5255925655       13.2616165981       11.5644185387
  H        16.4575577070       15.0959110333       11.7875382498
  H        16.0346361337       14.7936536149       13.4941176569
  C        17.5040116180       13.5388758870       12.8418542759
  H        14.6933533147       12.3378789049       14.6844955249
  C        14.1592282402        9.5550095937       15.2629478427
  H        11.0535415934        9.6746489296        0.8408484822
  H        12.2954803270        8.6026364293        1.5683430635
  C        13.0572082271       10.2733366117        0.4854437891
  C        19.1282559636       16.5130079340       -0.1020534913
  H        12.6325238736       12.4509973236       10.8407821890
  H        12.3534176737       12.7634647704       12.4869249370
  C        11.2979946740       14.1506659577       11.1836148333
  H        17.9327953975       13.0784244152       11.9603078125
  H        17.3611867242       12.6943277823       13.4628608990
  C        18.5306555718       14.4373392924       13.5565261476
  C        14.1124757202        8.1571488063       15.4392910022
  C        13.8502710841       10.3716762723       16.4439431720
  H        13.3713583437       11.1956081885        1.0080820781
  H        13.9542722254        9.6799134575        0.3981712216
  C        12.6203239949       10.6274298447       -0.9324148425
  H        18.8961668154       17.5378837465       -0.0038610274
  C        19.4731270943       16.0805162690       -1.3745048508
  H        11.6152075246       14.8291517451       10.3896394582
  H        11.0487548564       14.8049773221       11.9986850285
  C        10.0638875523       13.3771020992       10.7462561683
  H        18.8389343013       15.2189258375       12.7882574675
  H        17.9734723627       14.9797698211       14.3720387208
  C        19.7815618263       13.6910597856       14.0515278730
  N        14.6281309741        7.2348694796       14.5088901356
  C        13.6767502456        7.5339916594       16.5678584851
  C        13.5361643591        9.7812566571       17.6737615052
  H        13.9012072797       11.4466372917       16.3592098300
  H        13.1792921212       11.4534054083       -1.3340060203
  H        11.5688440913       10.8576013072       -0.9621191214
  H        12.7202231228        9.7653725445       -1.6709128105
  S        19.7306896380       14.4199069007       -1.9807874445
  C        19.6176654815       17.1763638570       -2.4868585603
  H        10.0354059683       12.4031307210       11.1795826476
  H         9.2158151854       13.9910266533       11.1011087832
  C        10.1779424065       13.2213905943        9.2119626941
  H        20.1800181870       13.2395605783       13.1384604775
  H        19.4766434411       12.9242100503       14.8239168831
  C        20.7406447961       14.7019973214       14.7077003476
  S        14.3437601349        5.7492069249       14.9925418708
  N        13.6749080687        6.1762473965       16.4664622741
  C        13.4174591342        8.2915769421       17.7471265300
  H        13.4540739594       10.3292376373       18.5175076732
  C        19.9620147802       15.1264416467       -3.5600211203
  N        19.9365329648       16.5135848340       -3.6473016474
  O        19.4074165028       18.4043662362       -2.3636169552
  H        10.4177285420       14.1700126093        8.6405099958
  H        11.0255054223       12.5472647024        9.0118141026
  C         8.9388966401       12.4892177777        8.7467055171
  H        20.0928340596       15.5183137825       15.1044604178
  H        21.2830861188       14.2493785321       15.4793036630
  C        21.7259572035       15.3570369623       13.6469607980
  C        12.9902501835        7.5094148533       18.8792166880
  S        20.5003963208       14.2248228962       -4.9735423169
  C        20.1295786323       17.3190263338       -4.8652787183
  H         9.1688888694       12.1683397684        7.7362032365
  H         8.8992613054       11.6669174149        9.3954034693
  C         7.6419194252       13.3430933062        8.6493404948
  H        21.1898245026       15.9176659851       12.9038835496
  H        22.3779393282       14.5369193230       13.2393842419
  C        22.5569482643       16.3977728197       14.3641104401
  H        13.2996386928        6.5422864290       18.8071310564
  C        12.3547686866        7.8058599189       20.1044819843
  H        20.7783084412       16.9109925662       -5.6226113467
  H        20.4337950931       18.3252172065       -4.8543872436
  C        18.7325493947       17.5274418699       -5.5000011277
  H         6.9478268517       13.0215043133        7.8199345503
  H         8.0498317281       14.3102417383        8.2517803584
  C         6.8195281053       13.4407819562        9.9574586694
  H        23.0642516584       16.0114534026       15.2819584721
  H        23.3994575305       16.5860285721       13.7580736012
  C        21.8216528938       17.7029230527       14.5267732770
  S        11.7504977520        9.3814373321       20.5727103332
  C        12.3813583779        6.7643416797       21.1617980971
  H        18.1224590868       18.1568266901       -4.8391869147
  H        18.1314858281       16.5920129505       -5.5807896998
  H        18.7921565436       18.0437663434       -6.4067650211
  H         5.8583367355       13.8997163694        9.7572047211
  H         6.7629557933       12.4098619907       10.3998654575
  H         7.2463198918       14.2704726813       10.5797441858
  H        21.3620541954       17.9853384886       13.5688134786
  H        20.9551123624       17.6279833396       15.2258838367
  H        22.4604543194       18.4422206292       15.0133803804
  C        11.6914566752        8.7293762829       22.1990877315
  N        11.8658076360        7.3538146068       22.2689825961
  O        12.6122542838        5.6091585652       20.9632366271
  S        11.0464689093        9.6457892029       23.6477724777
  C        11.6741347766        6.4931686013       23.4681522605
  H        11.2354406562        5.5872975619       23.1061208588
  H        10.8925076465        6.8976955457       24.0767332408
  C        13.0097685744        6.2394886561       24.2247295398
  H        13.8061620150        5.7747574389       23.6576407210
  H        12.7339484321        5.5617238713       25.0771221924
  H        13.3891566593        7.1498187329       24.6118138987
