352
 i =    76300, time =    76300.000, E =        25.3322722401
  H         9.3888923550        6.4936434543       31.6184329671
  C        10.4107181674        6.5701871285       32.1337348418
  H        10.2779272010        7.5406161038       32.5910032126
  C        11.5676921975        6.7933440759       31.0913052881
  C        10.8700600374        5.6390544223       33.2060413634
  C        11.6016687611        5.7410683239       30.0274026646
  H        11.4567230233        7.7696188228       30.7003334050
  H        12.5127212562        6.6383598446       31.6081088391
  H        10.1978357312        5.5470671118       34.0325804119
  H        10.9562133211        4.6302334131       32.8938432927
  H        11.7945449989        6.0218257702       33.5905593482
  C        10.3862372160        5.6904582581       29.0945688632
  H        11.7940979643        4.7915268865       30.4260486237
  H        12.3425076290        5.9801829192       29.3087633660
  C        10.6809602837        5.4288517409       27.6345672886
  H         9.7068140872        4.9477906199       29.5776522894
  H         9.8547520223        6.5661255665       29.2385615687
  C         9.6171649700        4.7672238575       26.8232062780
  H        11.5987481071        4.8141469701       27.5140017960
  H        10.9705303944        6.4193845565       27.2132799168
  C         8.3499877457        5.6269632482       26.6835375044
  H        10.0126835723        4.5202824834       25.8259425993
  H         9.3247187387        3.8902785714       27.4390932048
  C         7.2714021498        5.0946548277       25.8270238065
  H         7.9232999552        5.8445821312       27.6963893942
  H         8.6020918092        6.6305969487       26.3317880218
  C         6.7934197357        3.7003371236       26.3673180295
  C         7.6917869682        4.4585910087       24.5175313416
  C         6.1457027659        6.0943815414       25.5888862071
  C         7.0627079549        2.7018195413       25.4517942309
  C         6.3710906888        3.2628318869       27.6034077047
  C         7.5456016625        3.1584641916       24.2908093513
  C         8.1882391156        5.1496030206       23.4054100893
  H         5.8031554686        5.9883267497       24.5174175220
  H         6.6167504932        7.0217772379       25.6124092960
  C         4.9262293744        6.0329578275       26.5500918432
  S         6.6152173440        1.1166239888       26.1261021646
  C         6.2645462713        1.9110447644       27.6815672111
  H         6.3645631183        4.0126412892       28.3631730610
  C         8.0366037886        2.5663806428       23.1274687907
  H         8.3597053199        6.1831556052       23.5514432826
  C         8.5645915892        4.5519397826       22.1827130487
  H         5.0867199274        5.9974133385       27.6373501142
  H         4.4062726541        7.0538671574       26.3908222330
  C         3.7844483979        5.0229496805       26.2869172959
  C         5.7583917596        1.1569988085       28.9066937230
  C         8.5354308538        3.2458885520       22.0590538271
  H         7.8847023434        1.4813692424       23.0829551642
  C         9.0250176407        4.9087940938       20.9236918320
  H         4.1591242232        4.0670938389       26.5607728422
  H         3.6007620883        4.8307092633       25.2025301916
  C         2.5030246710        5.3930007229       26.9544158976
  C         5.6973134643       -0.2359554983       29.1736585953
  C         5.4335815103        2.0108704832       30.0682697468
  C         8.8841895323        2.4765364123       20.8548890152
  C         9.1950187078        3.8082911907       20.1199630364
  S         9.2383029065        6.3894864360       20.0407509087
  H         1.6959383603        5.2606643516       26.2786797612
  H         2.5345641662        6.4478522453       27.1848803689
  C         2.2238873915        4.7313219462       28.2659772134
  N         5.9444449944       -1.1884471278       28.1752799688
  C         5.3829814911       -0.7459115698       30.4546367108
  C         5.0491747411        1.5506784381       31.3163594915
  H         5.6068848053        3.0802902432       29.9979493766
  C         7.6127558818        1.6203421442       20.2618696277
  C        10.1719060585        1.6397294593       20.9515797199
  C         9.5407810716        4.1453067746       18.8275314024
  C         9.5675390495        5.4740554057       18.6089250118
  H         1.3570267597        4.1181137071       28.0838432463
  H         2.9743665850        4.0113442648       28.5179250131
  C         2.0620895802        5.6520555807       29.4873790225
  S         5.9687564934       -2.6334769386       28.9279458410
  N         5.5707209254       -2.1578838411       30.4355021765
  C         5.1203503680        0.0650830001       31.5894055013
  H         4.7501426542        2.3074437789       32.0467099685
  H         7.3181344752        0.7891550836       20.8932257885
  H         7.7548759609        1.2353675091       19.2665426794
  C         6.3210297938        2.5265801909       20.2694192608
  H        10.3699801479        1.3403830937       19.8942534329
  H         9.9156358638        0.6707902731       21.3925520080
  C        11.3744879969        2.3735796064       21.6289212591
  H         9.6234941989        3.2811213021       18.2108020237
  C         9.9508686094        6.1871592564       17.3100506393
  H         1.3576712448        6.4500568170       29.2103127067
  H         2.9924364040        6.1942203793       29.6633147701
  C         1.6819892344        4.9018253325       30.7428635653
  C         5.0346299707       -0.5675000114       32.8901131299
  H         6.6625628146        3.5190463520       19.9435934802
  H         5.9581781460        2.8609461417       21.2797110035
  C         5.1157108364        1.9396979758       19.4904554770
  H        11.1097166349        2.7814173883       22.5776893242
  H        11.6961708671        3.1539525961       21.0097977000
  C        12.6310204951        1.5029548980       21.7945016139
  C        10.1090790158        7.5481145912       17.1214801822
  C        10.2679797702        5.3842788987       16.0390499297
  H         1.1623552650        5.6012729256       31.3488204959
  H         0.9444982133        4.1694006792       30.5303762929
  C         2.7618195042        4.1867390129       31.5403330846
  H         4.9811736221       -1.6975140004       32.8188319877
  C         4.8517400390        0.0136747209       34.1437491344
  H         4.2686917218        2.6872593046       19.5213085471
  H         4.7268216483        1.1580024845       20.1425271458
  C         5.4817386964        1.1530868158       18.2044001297
  H        12.5416572337        0.6577675554       22.4770023383
  H        12.9657441766        0.9998527917       20.8680426767
  C        13.7489928471        2.3790309524       22.3159980410
  N         9.7376657014        8.4772684050       18.1166575028
  C        10.4235276626        8.1336435279       15.8677313859
  C        10.4925596646        5.9529406710       14.7854749327
  H        10.0790353178        4.3146266618       16.1678308352
  H         2.9790389980        4.8217693808       32.3873637735
  H         2.2761598112        3.2678838150       32.0288494752
  H         3.5936617610        3.9689721741       30.8493353289
  S         4.4640434520        1.6624523302       34.4980816014
  C         4.7584555453       -0.9407246979       35.2758346209
  H         6.2788780858        1.7474110515       17.6483570991
  H         5.8389261652        0.1625042278       18.4124068861
  C         4.3061433895        1.1422073877       17.2502963847
  H        13.4370488958        3.0967260052       23.0438286978
  H        14.2311471392        2.8924009155       21.4756252522
  C        14.8211519540        1.5310207019       22.9496167273
  S         9.8694885070        9.9346047006       17.4004733881
  N        10.4572322379        9.5373459629       15.9793391699
  C        10.6751684859        7.4238748574       14.6538688716
  H        10.7063642997        5.3943858446       13.8674596301
  C         4.2998348100        1.1234239283       36.1347495826
  N         4.3989448859       -0.1815423839       36.3640601886
  O         4.8037523658       -2.1313691395       35.1827764314
  H         4.4962678598        0.5027906640       16.4245341874
  H         4.3324483776        2.1187410598       16.8113603942
  C         2.9237638717        0.8440749616       17.8513016762
  H        14.4048880547        0.9836962527       23.8331981819
  H        15.2595906686        0.8407314245       22.2329113723
  C        15.9721032967        2.3877682407       23.4178806907
  C        11.0012231967        8.1162850864       13.4436302754
  S         3.7104926841        2.1590438320       37.5178626880
  C         4.2862153639       -0.8672099301       37.6658608544
  H         2.8030977070        0.7138359439       18.9301317919
  H         2.2858100833        1.7806658910       17.6340490776
  C         2.1531177761       -0.3227718478       17.2431724740
  H        15.8016387785        3.1252623253       24.1683250816
  H        16.0986086216        3.0771985760       22.5071602385
  C        17.2994273324        1.6714851648       23.7091929944
  H        10.6188909121        9.1251250929       13.4529846591
  C        11.5442393270        7.7295552206       12.2477065794
  H         3.6816105364       -0.2384725840       38.3436400437
  H         3.8517470908       -1.8544504939       37.5457751084
  C         5.6653459751       -1.0017286585       38.3199470865
  H         2.0906860470       -0.1516595974       16.1620228438
  H         1.1102542758       -0.2080444173       17.4684885725
  C         2.5598446907       -1.7044867806       17.7425781982
  H        17.6769912944        1.9789203934       24.6730334913
  H        17.0965692227        0.5822147050       23.6317906177
  C        18.3345882984        1.9924640076       22.6272264955
  S        12.0951812728        6.1380658826       11.7654748212
  C        11.6547828650        8.8116574317       11.2145425644
  H         5.9648389450       -2.0412020190       38.3046176689
  H         6.3341096479       -0.5893934280       37.5764270505
  H         5.8835162237       -0.5467930680       39.3421061988
  H         3.5321702512       -1.8641193815       17.3037785775
  H         1.8636076551       -2.4660230780       17.4642206836
  H         2.7058920839       -1.6369252464       18.8427850666
  H        19.2359154678        1.3866033792       22.7003209936
  H        18.5044276641        3.0599807375       22.6865034593
  H        17.9067139967        1.7798617126       21.6193692695
  C        12.4756019584        6.9287466943       10.1650677280
  N        12.1983288587        8.2930575608       10.1071888906
  O        11.1892072937        9.9478911801       11.3612097467
  S        13.5065409296        6.1480651573        9.0130713691
  C        12.3771551841        9.0692376375        8.8892418698
  H        12.4963419744       10.1203749719        9.2092865659
  H        13.3310579497        8.7026603239        8.5009027984
  C        11.1535822872        8.7626958500        7.9842548948
  H        11.0700072587        9.6982661654        7.4316431358
  H        11.4539987624        7.8702555948        7.3425630284
  H        10.1971409382        8.6661247831        8.5450562307
  H        21.4626219336        9.4659370324        2.8776078431
  C        22.4080449168        9.9127235866        3.1141282105
  H        23.1234646808        9.0971933177        3.3026728096
  C        22.4669005012       10.8778091005        4.3348794022
  C        23.1010913568       10.5459995401        1.8894335935
  C        21.2593857655       10.6807252032        5.2623508478
  H        23.2897990005       10.7134707690        4.9961998711
  H        22.3409370540       11.8469333767        4.0174809710
  H        23.8812750884       11.2458813205        2.2499195901
  H        22.2813241344       11.0805219257        1.3799989806
  H        23.5689821137        9.8244376609        1.1880565696
  C        21.1791316999        9.3517195290        6.0591371793
  H        21.2505635500       11.4914890349        5.9498638574
  H        20.3529834517       10.7779343827        4.6338427724
  C        20.2126019844        9.3647591820        7.1337651093
  H        22.0956064674        9.1841676797        6.5790048047
  H        21.0447458562        8.5293758788        5.3848285769
  C        18.8282567519        9.1526859312        6.5682141079
  H        20.3169143147       10.1184702082        7.9478703563
  H        20.3544698724        8.4729046310        7.7258955515
  C        17.7254262245        9.5104626383        7.5873843206
  H        18.6421964752        9.5963107518        5.5728191244
  H        18.7735820154        8.1425218864        6.3469989458
  C        16.5518255308       10.3751532302        7.0675886229
  H        18.1623767190       10.0220526431        8.5123094994
  H        17.3697145910        8.6111446274        8.0876842851
  C        16.8960387098       11.7886567212        6.4730901587
  C        16.0097046780       10.9967565894        8.3684429583
  C        15.5128017488        9.5609795466        6.2966161808
  C        16.5552230295       12.8415140917        7.2330939722
  C        17.4172769532       12.2201865918        5.1961232339
  C        15.9676651571       12.3965179011        8.4203376648
  C        15.5582800255       10.3813157343        9.5352139255
  H        16.1365354561        9.1200365832        5.5358860872
  H        15.0706977934        8.7809526792        6.9259918541
  C        14.5139330914       10.4905931369        5.6411857456
  S        16.9604063688       14.3397511902        6.4953460238
  C        17.3334379119       13.5552585636        5.0242118634
  H        17.4841979355       11.4773476783        4.4412365160
  C        15.5967954485       12.9622260439        9.6020899245
  H        15.5141896675        9.2325186059        9.4757607443
  C        15.2764845666       11.0279824182       10.7425098230
  H        15.0020055381       11.0028074816        4.8486440738
  H        14.2599282231       11.2560799723        6.4155217039
  C        13.2693479543        9.7094190366        5.1419055142
  C        17.8276223436       14.2870410570        3.8643913449
  C        15.2827072003       12.3672066902       10.8120154572
  H        15.6932624591       14.0361092708        9.6474696702
  C        14.9890311735       10.6563271470       12.0618019558
  H        12.3240511900       10.1641259711        5.1999120149
  H        13.1432734960        8.7340489466        5.6467812646
  C        13.3219393188        9.4872189743        3.6279706397
  C        17.8786542989       15.6858133343        3.6849570838
  C        18.2057665072       13.4751157577        2.6244386053
  C        14.9777410865       13.1597999426       12.0375642110
  C        14.7368072924       11.7859681335       12.8506727565
  S        14.7647225542        9.1576663337       12.8801399122
  H        13.4373259233        8.4014158043        3.5446623400
  H        14.1653835341        9.8898107402        3.1457360155
  C        12.0398468132        9.9815886866        2.9195372085
  N        17.5267197113       16.6755167220        4.5877713496
  C        18.3033250321       16.3148501992        2.5398995063
  C        18.6954951695       14.0932210307        1.5101242898
  H        18.1666269586       12.4116785884        2.5510121084
  C        13.6403238700       13.9781378922       11.9433904226
  C        16.1306599846       14.0101819655       12.5615447351
  C        14.3667864729       11.4183704305       14.1631206842
  C        14.3404668217       10.0515621422       14.3392222024
  H        11.1805402580        9.3895384006        3.2322274610
  H        11.8404499481       11.0899870357        3.1878544347
  C        12.0254839450        9.6175175866        1.4574324344
  S        17.7045321108       18.1206015935        4.0008023482
  N        18.2504587107       17.7000459646        2.5610901157
  C        18.6031461712       15.5384498566        1.3676762796
  H        18.9788848370       13.4240612686        0.7763354474
  H        13.7085732872       14.9045971641       11.3421014864
  H        13.4760616709       14.2478482531       12.9919048126
  C        12.4252676297       13.1442842430       11.5227684039
  H        16.3994739703       14.7050861816       11.7782204682
  H        15.7938185234       14.5598499205       13.5411140458
  C        17.3313875157       13.2843484436       13.0897354006
  H        14.1383350599       12.3007593824       14.7781214025
  C        13.9805454919        9.3524509641       15.6417293800
  H        11.0095389811        9.7403231814        1.0045059211
  H        12.0866917576        8.4865575642        1.4317841734
  C        13.2312655720       10.2614053867        0.6975358319
  C        18.8780759014       16.3470139804        0.1683599951
  H        12.5072583287       12.6612540025       10.5655075613
  H        12.0609213471       12.4423977797       12.3072526054
  C        11.2833186661       14.1837266721       11.4397049280
  H        17.5775730582       12.5299622984       12.3412117097
  H        16.9915599366       12.7316329894       13.9560036809
  C        18.4793271725       14.1564555011       13.4840991468
  C        13.8258611686        7.9795525908       15.8386976066
  C        13.7080443652       10.2237593270       16.8244337721
  H        13.4564208524       11.2221882984        1.1161184446
  H        14.0221009302        9.5061224173        0.8121439302
  C        12.8049376157       10.4838850929       -0.7809445093
  H        18.6858486479       17.4421018296        0.2598306283
  C        19.1786046802       16.0217467066       -1.1198167267
  H        11.4193855388       14.9783229473       10.7076554513
  H        11.2008963923       14.7107698593       12.4015156182
  C         9.9490035965       13.5210343419       11.0463009532
  H        19.0224677884       14.5126225819       12.6367996822
  H        18.1373973227       15.0590855093       14.0072755868
  C        19.4729526985       13.3918377333       14.3503430517
  N        14.2376749759        7.0502979002       14.9078470991
  C        13.5709485085        7.3896043666       17.0663263058
  C        13.4457042958        9.6395826249       18.0493898774
  H        13.6887824664       11.3211453152       16.8144651737
  H        12.4475630433        9.6795932017       -1.3882851093
  H        13.4572605738       11.0040225703       -1.4345628376
  H        11.8859815912       11.0466364821       -0.8382191110
  S        19.4514305549       14.3895372235       -1.7870878216
  C        19.2112566257       17.0832804226       -2.1923376481
  H        10.1424692017       12.4660206292       11.1022091689
  H         9.0924476827       13.7286056023       11.7346357021
  C         9.4730448179       13.7665727487        9.5711852294
  H        20.1384153024       12.8097843353       13.7129785483
  H        18.9254306162       12.7171028207       14.9848594345
  C        20.3402276032       14.3188952251       15.1994805018
  S        14.0312099340        5.5461677510       15.4539431961
  N        13.4439826116        5.9777336836       16.9015463601
  C        13.3096754590        8.1332534159       18.2436692338
  H        13.2821634803       10.3400488230       18.8757639156
  C        19.5567796478       15.1753952398       -3.3750638791
  N        19.6317090763       16.5237387473       -3.3665205856
  O        19.0670272695       18.2538467600       -1.8587577748
  H         8.9645217384       14.7298617846        9.6271863799
  H        10.2657661216       13.9230585997        8.8994430153
  C         8.5383912851       12.7285839807        9.1043495821
  H        19.6812869650       15.0474209102       15.7445024285
  H        20.7089325209       13.7247047665       16.0670016017
  C        21.4772204681       14.9899616243       14.3203139594
  C        12.9519592787        7.3943723701       19.3088123209
  S        20.0134677880       14.2931698018       -4.8443381508
  C        19.7174199806       17.3465801724       -4.5911297644
  H         8.8513215438       12.2888175454        8.1882652383
  H         8.3974643724       11.8866510373        9.7922764739
  C         7.1530716864       13.2576434947        8.7889806507
  H        21.1085443141       15.4073008749       13.3752681367
  H        22.1197341227       14.1006927575       14.1115394485
  C        22.2332127323       16.0660082627       15.1022206570
  H        13.3189986642        6.3517282787       19.1983716076
  C        12.3482843713        7.7045062989       20.5069970303
  H        20.5891765666       17.0769023250       -5.0769543509
  H        19.7496829155       18.4164799294       -4.3930196705
  C        18.3507620857       17.3362222477       -5.4276992792
  H         6.6267414711       12.6872850291        8.0446164571
  H         7.0253988080       14.2979128516        8.4975278975
  C         6.2352333781       13.1883618636       10.0289306059
  H        22.2373965340       15.8916010685       16.1829097255
  H        23.2374152158       15.9573609770       14.7809923695
  C        21.6690545003       17.4986401825       14.8972052458
  S        11.7923284994        9.3042120050       20.8912259101
  C        12.2106491717        6.7245830039       21.5767910538
  H        17.6486163601       16.6117510649       -4.9883087414
  H        18.4273553253       16.9131511868       -6.4098176435
  H        17.8906805438       18.3078402006       -5.5215746920
  H         6.7717864682       13.6476839582       10.8730711213
  H         5.2924506526       13.6825484964        9.7767810380
  H         6.1625521238       12.1598902890       10.3072674173
  H        22.3911378895       18.1997120897       15.3304216151
  H        21.6046348552       17.7274216873       13.8228148107
  H        20.6190732428       17.6435701458       15.1206392222
  C        11.6164721206        8.6679615982       22.5080194203
  N        11.6927784208        7.3437532854       22.6586019316
  O        12.5080638606        5.5387190628       21.5176855449
  S        10.5293274763        9.3992659652       23.6037884422
  C        11.6459160889        6.6950143615       23.9483392246
  H        11.4020489555        5.6171068747       23.7463849648
  H        10.8899590418        7.1153173756       24.6373401282
  C        13.0038096229        6.8437928972       24.6028057830
  H        12.9467396702        7.1385964758       25.6562308218
  H        13.7113555536        7.5638102463       24.1739959298
  H        13.4428966637        5.9019559100       24.6656805398
