352
 i =    46200, time =    46200.000, E =        24.8280339877
  H        10.7825389328        7.1404229886       33.7628950390
  C        11.2691684285        6.6439875143       32.9644996942
  H        12.0253213301        7.2914920456       32.6537761563
  C        10.2455267176        6.4657126362       31.7803873425
  C        11.8561954376        5.3729505119       33.5698716507
  C        10.8029931773        6.0365733373       30.4358911644
  H         9.4969858236        5.7094935466       31.9443128678
  H         9.7463169066        7.4303809368       31.6602617171
  H        12.2918845686        5.6850479593       34.5824594576
  H        11.1327313099        4.5879376309       33.4714120657
  H        12.6942188043        5.0291375013       32.9526551189
  C         9.7374321426        6.2120421743       29.2558814894
  H        11.2491381858        5.0617753134       30.5011531630
  H        11.5466467877        6.8022039017       30.2806917924
  C        10.3716864369        6.1901725548       27.8187109683
  H         9.0604258150        5.3423251621       29.4612823846
  H         9.2161003812        7.1486959029       29.3738350214
  C         9.4409368573        5.4887348276       26.7558529404
  H        11.3024976253        5.6565513279       27.9793178934
  H        10.4868600751        7.2456281345       27.3627162652
  C         8.1489014698        6.2879241820       26.4376988686
  H        10.0051489408        5.4283381264       25.8478117003
  H         9.3097461709        4.3940013983       27.1218987991
  C         7.0664187084        5.4719602289       25.5963636531
  H         7.7335086579        6.5701113643       27.4713699281
  H         8.4488558509        7.1982269336       25.8943947569
  C         6.7718746387        4.1313405774       26.3702682785
  C         7.6153007766        4.7269339293       24.4144411290
  C         5.7864111492        6.2746054960       25.3418452003
  C         7.0530640863        3.0008009456       25.5812976440
  C         6.2665563163        3.7608681510       27.5938976154
  C         7.6337409587        3.3415232117       24.3601245733
  C         8.0856665764        5.3578382387       23.3035263741
  H         6.0161062506        7.1091170212       24.6080353970
  H         5.5344405839        6.8846833211       26.1253959330
  C         4.6107847331        5.4597044198       24.7455127134
  S         6.8269760907        1.5416201778       26.4103330266
  C         6.2892783690        2.4028078745       27.7723429314
  H         6.0727786713        4.5728741310       28.3120613792
  C         8.1701098795        2.6969403959       23.2641447320
  H         8.0446948760        6.4568780157       23.2268597298
  C         8.4357630488        4.7124027788       22.1845184640
  H         4.9887556849        5.0713778973       23.7572375568
  H         4.3788633767        4.5694251078       25.3438547144
  C         3.4724526008        6.3811003499       24.4928180936
  C         5.8929558840        1.7278007263       29.0386720909
  C         8.5017658466        3.3832237938       22.1223420343
  H         8.1923415999        1.6176160204       23.2916628617
  C         9.0011004676        5.1151840871       21.0224219224
  H         2.8752629192        6.0027532388       23.6066214941
  H         3.8754507910        7.3599542388       24.1922459609
  C         2.6852252338        6.5580646573       25.8206421276
  C         5.9468149819        0.3700000376       29.3804701731
  C         5.4778139945        2.5160486620       30.2256943705
  C         9.1399366961        2.6869583909       20.8893806144
  C         9.3474325517        4.0527559683       20.2092478361
  S         9.2086618263        6.6385372737       20.1924905741
  H         1.7739355840        7.2004705033       25.5844675907
  H         3.2628121559        7.0795895015       26.5240767581
  C         1.9587825132        5.2725268419       26.4280241947
  N         6.3401756188       -0.5585562509       28.4005406473
  C         5.5527892826       -0.2013049705       30.6069152467
  C         5.2341448620        1.9775554760       31.5190858591
  H         5.6184464406        3.5778542838       30.0898254808
  C         8.1102395567        1.8015915323       20.0639605712
  C        10.3921177396        2.0313559241       21.4021088961
  C         9.7846011113        4.4771313192       18.9490710073
  C         9.7245153321        5.8380343640       18.7619412031
  H         1.1816649034        4.9493644872       25.7566503443
  H         2.6087035996        4.5071628008       26.4169734364
  C         1.4258918621        5.5285362975       27.7912126772
  S         6.1104094279       -2.0169491698       28.9803487486
  N         5.5922648722       -1.6220656255       30.4739294523
  C         5.1439618695        0.5641998184       31.7131623267
  H         5.0219659309        2.6870107600       32.2891953066
  H         7.6526153811        1.0467575613       20.7622780476
  H         8.7886713533        1.2775272729       19.4106185209
  C         7.0108777574        2.5093755219       19.3225270892
  H        10.2800278166        1.0295227707       21.8024334204
  H        10.7899665186        2.6683465548       22.2675222604
  C        11.5071857005        1.9865151079       20.3865154214
  H        10.2171248778        3.7700343394       18.2404556981
  C         9.9213347463        6.5860959262       17.4452727097
  H         0.7474581730        4.6493546148       28.0328846455
  H         0.8561744466        6.4858924757       27.7669786613
  C         2.6988161580        5.4473067257       28.6632578648
  C         4.9703557237       -0.1068633820       33.0155199607
  H         7.3981053223        3.0061580360       18.4649806643
  H         6.6906108876        3.2707990384       20.0589647730
  C         5.8167775561        1.6156943593       18.9210383069
  H        11.7460604828        3.0371918762       20.1877684336
  H        11.1700642716        1.6287521407       19.4778114428
  C        12.7662846534        1.3201608108       20.9299627225
  C         9.9178777421        8.0311135501       17.2642727101
  C        10.3132128183        5.7875492028       16.2649735760
  H         3.4151616730        4.6427536797       28.5554895429
  H         3.2037084985        6.3329404088       28.4750454980
  C         2.2531611979        5.4310469511       30.0912292461
  H         5.1090239188       -1.1798414066       33.0146811145
  C         4.6701368625        0.3427657913       34.2304112934
  H         5.4789410140        1.0934390121       19.8225045834
  H         6.2114915996        0.8714113620       18.1665951015
  C         4.6939262904        2.4078811144       18.4022985855
  H        12.6206151097        1.0403777323       21.9676027492
  H        12.8024856440        0.3625869222       20.4434390056
  C        14.0831961594        2.1313352805       20.8588838144
  N         9.6542928934        8.9081696673       18.3077239371
  C        10.3785256225        8.5666829113       16.0851484922
  C        10.6733163540        6.3592945047       15.0711433504
  H        10.3343103147        4.7199370460       16.4205343258
  H         1.1744951653        5.0233736423       30.0722232701
  H         2.9155002759        4.7610641113       30.6970037430
  H         2.2321331326        6.4794216318       30.4937114906
  S         4.3281518945        1.9867771151       34.6917814127
  C         4.5464157610       -0.6588483667       35.3203595424
  H         4.4206037401        3.2211762303       19.0015101594
  H         5.1278916628        2.9021564502       17.5173099048
  C         3.4150909350        1.6680712335       18.0780807533
  H        14.1535367328        2.8209592331       19.9675777648
  H        14.8480659195        1.4215764725       20.7688185692
  C        14.2406712606        2.9173210697       22.1863147277
  S         9.8492893299       10.4008911163       17.6720796381
  N        10.2921768562        9.9560176742       16.1718977763
  C        10.6807478622        7.8484561230       14.9393616631
  H        10.9008700352        5.7102180284       14.2241472919
  C         4.1259238210        1.3431778802       36.3596841762
  N         4.1537682031       -0.0097275021       36.4644056375
  O         4.8899008730       -1.8371920185       35.2601270054
  H         2.7734523565        2.4490705870       17.5698236071
  H         2.9084379613        1.5164171509       19.0981499851
  C         3.5988395513        0.4680180164       17.1010068897
  H        14.4691433171        4.0065399392       22.0640128939
  H        13.2181286350        2.9128303597       22.5948140934
  C        15.1359851540        2.1880319763       23.2124481362
  C        10.9744838477        8.6316583095       13.8059722449
  S         3.5358464238        2.2499842641       37.7350632541
  C         3.9927498175       -0.6050277887       37.7426049996
  H         3.9312503536        1.0156430623       16.1834543550
  H         4.3226600554       -0.2324362321       17.4702214889
  C         2.3606173255       -0.3264095589       16.7693112860
  H        15.4135173261        1.1969078844       22.8420304408
  H        14.4768634543        1.9297308238       24.0448703629
  C        16.3813792703        2.9131780139       23.6242091498
  H        10.6752159175        9.6485894708       13.8353138302
  C        11.3572439866        8.2429019676       12.5238858276
  H         3.2630749232       -0.1493831596       38.4307224907
  H         3.6003994493       -1.6525165766       37.5396730889
  C         5.3539859069       -0.6368812648       38.3681444312
  H         2.5707594010       -0.8567801164       15.8593678371
  H         1.4549059648        0.2412932038       16.5416963456
  C         2.1106448400       -1.3156999246       17.8908467517
  H        16.1785623607        3.9802558037       23.8113597376
  H        16.8334324164        2.5452870859       24.5433859313
  C        17.5460555568        2.7144710105       22.6304565831
  S        11.7197183408        6.6189040451       12.0335170207
  C        11.3421213336        9.2262294804       11.4202617324
  H         5.2130112177       -0.1614721731       39.4206353127
  H         5.6630680700       -1.6799596689       38.5619714429
  H         6.1466089221       -0.1404985506       37.8436339335
  H         2.5868548281       -1.0532663736       18.7790970456
  H         2.7995725177       -2.1636072012       17.5451882765
  H         1.0707328302       -1.6969588319       18.0401235509
  H        17.6813989522        1.6542004194       22.3418866671
  H        18.4551398217        2.9699216434       23.1048153090
  H        17.4052363108        3.3803765753       21.7229579314
  C        11.9574993514        7.3472304038       10.4620400565
  N        11.7290314807        8.6107977785       10.3071325618
  O        11.0931558550       10.4162416311       11.4943634285
  S        12.4794788204        6.3311450107        9.0828722787
  C        11.8390855943        9.3455135633        9.0554174271
  H        12.3658588278       10.3321279874        9.1211116576
  H        12.5235546078        8.7973230020        8.3756494234
  C        10.5064247547        9.3920473004        8.3284680187
  H         9.6907448449        9.8394957400        8.9271415629
  H        10.6570589351        9.8738005340        7.3678168719
  H        10.1928259643        8.2975827677        8.2896275272
  H        21.1095462939       11.4834436487        3.5100945685
  C        21.3680916011       10.4423847556        3.4016259591
  H        20.4170103814        9.9657277663        3.2778366601
  C        22.0905808631        9.9516008741        4.6546615010
  C        22.2413119903       10.2625920575        2.1673225507
  C        21.1796725717       10.3507364996        5.8584007927
  H        22.2668789674        8.9288468385        4.6415539095
  H        23.0575469775       10.4871969045        4.4413190977
  H        22.6806024491        9.2792488728        2.2679357224
  H        23.1632861659       10.8130221484        2.0415667819
  H        21.6967252166       10.3278689826        1.2472787341
  C        20.8009983408        9.1009457230        6.6191078852
  H        21.6723963892       10.9665232369        6.5419565350
  H        20.3112404359       10.9847887335        5.5522861057
  C        20.1303983474        9.5920978845        7.9532852864
  H        21.6928868775        8.5838969320        6.9855085502
  H        20.1108028264        8.4394845300        6.0083244432
  C        18.8347534348       10.3927860867        7.8588895826
  H        20.8591313136       10.2439288959        8.5092533752
  H        20.0898475864        8.7638354405        8.7219411405
  C        17.5690995198        9.7108901024        7.3185852754
  H        18.7562014678       10.8196480661        8.9079348390
  H        18.9390878061       11.2785642184        7.1991035145
  C        16.3694728819       10.6474235998        6.9810765544
  H        17.1449077575        8.9240998225        7.9913669324
  H        17.7258081574        9.1144468318        6.4579101139
  C        16.8215751822       11.9871049723        6.3491491668
  C        15.9327311527       11.3281556695        8.2236583643
  C        15.2561580487        9.9132721283        6.1625741539
  C        16.6237926755       13.1096458962        7.1668419131
  C        17.3056427083       12.3571506806        5.1260870717
  C        16.1194380161       12.6861242248        8.3513540812
  C        15.4461724836       10.6693973015        9.3686752856
  H        15.6800938094        9.6054515605        5.1626199928
  H        15.0506159173        8.9540698733        6.7299345570
  C        13.9436225438       10.8135848696        5.9535448860
  S        17.1115543905       14.6150925091        6.4262477901
  C        17.5830803896       13.7350539429        5.0270459776
  H        17.5006476796       11.5773792010        4.4148152796
  C        15.7105616641       13.2654982416        9.5410442908
  H        15.4356701433        9.6403120620        9.3277902981
  C        15.1406316797       11.2513175300       10.5223920332
  H        14.2369114787       11.8165241767        5.5876659611
  H        13.4975443904       10.8735726073        6.9766042803
  C        12.9470083619       10.3358051509        4.8687327339
  C        18.0345891242       14.5113894350        3.8163179226
  C        15.2095884060       12.6089397253       10.7103524536
  H        15.7700509443       14.3473917939        9.6988348203
  C        14.7406026362       10.8846274712       11.8008980229
  H        12.0729971099       10.9969159273        4.8074805056
  H        12.6029998191        9.2981167589        5.1476274183
  C        13.6599281985        9.9489063190        3.5309887128
  C        17.9183579170       15.9180743795        3.5696402038
  C        18.5341706627       13.7499830940        2.6559431188
  C        14.9247462953       13.3538762976       11.9888027441
  C        14.6948218836       11.9551556715       12.6821860631
  S        14.5129489565        9.3329942951       12.6140789141
  H        14.2543052698        9.0098321999        3.7297752515
  H        14.3776289350       10.6959653282        3.2162160423
  C        12.5792002777        9.5393671339        2.5368440169
  N        17.5634770001       16.8753529196        4.5491432032
  C        18.1853613779       16.5242989828        2.3229652565
  C        18.8067394680       14.3580234984        1.4170373631
  H        18.7664241413       12.6917000062        2.8149203639
  C        13.5389282098       14.2011137017       11.9371230818
  C        15.9639170007       14.1276160015       12.6856714189
  C        14.4171480756       11.5227084488       13.9768696164
  C        14.3149094977       10.1749686217       14.0878131967
  H        11.8027346539        8.9461934163        2.9816330846
  H        12.0653379521       10.4304272702        2.2232978296
  C        13.1221615537        8.6662839657        1.3388402579
  S        17.5224254438       18.3325456887        3.7892724453
  N        17.8652297800       17.9072517531        2.2818241793
  C        18.5298791946       15.7890233342        1.1507033837
  H        19.1475481767       13.7041706941        0.6267086637
  H        13.6011414442       15.2849580427       11.6919463159
  H        13.1906042205       14.2221838698       12.9434284314
  C        12.4688415107       13.5829980364       11.1150788624
  H        16.1290846232       15.0449459381       12.1405031214
  H        15.5961316140       14.5392975111       13.6049924465
  C        17.2751993397       13.3960607451       13.0599178438
  H        14.3352485633       12.2484995335       14.7390062301
  C        14.0718374793        9.3757506325       15.3692758263
  H        12.2400747776        8.1069202359        0.9378041947
  H        13.8777821047        7.9302666464        1.6479484746
  C        13.5653599575        9.6261950391        0.1948718086
  C        18.6497521095       16.4702684057       -0.1296874498
  H        12.8589922386       13.5800813119       10.1633700404
  H        12.2644696495       12.5368330281       11.5610932868
  C        11.0948710695       14.3230724391       11.2287429203
  H        17.5872755232       12.6261745154       12.3895282015
  H        17.1947965646       12.8728279281       14.0459219828
  C        18.4271970264       14.3344677590       13.3784674412
  C        13.9544607407        7.9551192861       15.5050093382
  C        13.7859908948       10.1634410868       16.5694482957
  H        14.0486282685       10.5239778561        0.5820743277
  H        14.2798453336        9.0918756624       -0.4581809393
  C        12.4072040842       10.1740612867       -0.6198810442
  H        18.1138280926       17.4610420802       -0.1179196398
  C        18.9641062723       15.9821530564       -1.3649221387
  H        11.1806219498       15.1394058819       10.5695894999
  H        11.0090642780       14.8077127465       12.2320703775
  C         9.9501130072       13.3945033192       10.8709299346
  H        18.7862384688       14.9449718121       12.5273872055
  H        18.0519516648       15.0063488942       14.1785807149
  C        19.6619646619       13.5200702932       13.8415945225
  N        14.1690820971        7.0394810812       14.4435490258
  C        13.6700455648        7.2811033868       16.6702384104
  C        13.3271574971        9.4472457690       17.7289514412
  H        13.8465856328       11.2603375164       16.4446143311
  H        11.5804057277       10.3853352710        0.0410460438
  H        11.9948222841        9.3737673345       -1.2183435095
  H        12.6509885332       11.0375253685       -1.3261224333
  S        19.2381313645       14.3374873471       -1.8015752770
  C        19.1589687175       16.9167381490       -2.4589308244
  H        10.2108018787       12.6150835047       10.1905663729
  H         9.6634813032       12.9757949933       11.7764758771
  C         8.6022875260       14.0275436686       10.4733707395
  H        19.8363314288       12.6150567934       13.2440155741
  H        19.5694705094       13.1738241145       14.8699631655
  C        20.9531032097       14.3912529669       13.5949185595
  S        14.1648983071        5.5332300896       15.0318813708
  N        13.8380259201        5.8165336059       16.5812289486
  C        13.3004004316        8.0001413652       17.8076178026
  H        12.9699345068        9.9983444398       18.6151704356
  C        19.5847368626       14.8831178507       -3.3805708570
  N        19.5757570909       16.2222185304       -3.5321565272
  O        18.9800076817       18.1445271721       -2.3536341679
  H         8.0341396529       14.2037530393       11.3964831755
  H         8.7928614155       15.0180045657       10.2113679439
  C         7.8084713257       13.2271409779        9.4116302810
  H        21.7942400909       13.7642582854       13.9196860876
  H        21.1718613994       14.4824259050       12.4664128925
  C        21.0601007767       15.5562433786       14.5431943036
  C        12.8409326330        7.2871819664       18.8888892772
  S        20.1336641540       13.9581600318       -4.7454396429
  C        19.6912882456       16.8097962041       -4.8375755711
  H         8.4861177280       13.1624301471        8.5566171036
  H         7.6141542076       12.2093026545        9.7723481017
  C         6.5299850924       13.8876389060        8.8600521438
  H        21.5011768225       15.1294142613       15.4847695254
  H        20.0024065554       15.8476849405       14.6933913836
  C        21.8471958505       16.7535065330       14.0483502950
  H        12.8422307715        6.1986777303       18.7528728605
  C        12.4665898501        7.5911513071       20.1729247397
  H        20.5153730227       16.5104557844       -5.5156379037
  H        19.9483751249       17.8396162125       -4.7246392427
  C        18.3957381079       16.8536050890       -5.6041240751
  H         6.1417699508       13.2952057266        8.0177155524
  H         6.6705537480       14.8652551487        8.3641365196
  C         5.3706922997       14.0116988487        9.8606437198
  H        22.8350060703       16.3707129039       13.7871331902
  H        21.4511893021       17.1948311066       13.1158323556
  C        22.0363713300       17.8062363596       15.0978482460
  S        12.3206114513        9.1294808924       20.8285678205
  C        12.3958024538        6.4151603936       21.1550716045
  H        17.7081420661       15.9993643906       -5.5949911914
  H        18.5958598476       17.1006882144       -6.6161390506
  H        17.7531018059       17.6747890751       -5.1788591670
  H         4.9422342629       13.0574090771       10.2338236927
  H         5.7046626174       14.6818924391       10.6669645617
  H         4.4948209044       14.4313708983        9.4457060734
  H        21.1289415467       18.2895710625       15.4102793517
  H        22.5722925896       17.5036838555       16.0177360894
  H        22.6608759196       18.5407392808       14.6301079857
  C        12.1179561292        8.2353224939       22.3759922142
  N        12.1739340949        6.8251170448       22.3617199716
  O        12.6137552937        5.2382153557       20.8462763798
  S        11.7742017239        8.9941436139       23.9893373689
  C        12.0366592388        5.9253972536       23.5207905291
  H        11.7452608541        4.9297831646       23.2647165988
  H        11.1343863993        6.3041352644       24.0289764899
  C        13.3502659483        5.8610078871       24.3834874448
  H        14.0415631776        6.4977446585       23.9373457517
  H        13.7275762241        4.8935262838       24.5001710654
  H        13.2226486891        6.2514681344       25.4021547194
