352
 i =    82600, time =    82600.000, E =        25.0913134197
  H        11.0451958320        7.4938143947       31.1687049159
  C        11.7572926606        6.6938498749       31.5393409672
  H        12.6315672718        7.2325545994       31.7487609206
  C        12.1579750720        5.6523249793       30.4947122895
  C        11.5418120284        5.9852324103       32.8360688570
  C        10.9494298844        4.8167377138       29.9830084424
  H        12.4563064475        6.1756883485       29.5966601116
  H        12.9766352101        5.0072662221       30.9175665082
  H        12.4609051519        5.7057087343       33.2523490851
  H        10.8711684619        6.5017251664       33.5174256352
  H        11.0946930845        5.0079579910       32.6470867236
  C        10.2457237099        5.5881411603       28.8982557519
  H        10.1542234248        4.6877040995       30.7457785724
  H        11.2588495378        3.8601291207       29.6126048088
  C        10.9302413756        5.4728935875       27.5465221779
  H         9.2430300283        5.0345787261       28.8759527235
  H        10.0256052239        6.6408134604       29.1606079800
  C        10.0444053460        4.9308877489       26.4110442036
  H        11.7993580852        4.8709358017       27.7502722944
  H        11.2851582032        6.4178651718       27.0933146068
  C         8.7964494000        5.8499660656       26.0572235357
  H        10.4900945691        4.5969304862       25.4850458530
  H         9.7907177585        3.9960902894       26.8319327193
  C         7.6702854539        5.0979188006       25.2953922599
  H         8.5582039240        6.2920438846       26.9716492376
  H         9.0594243304        6.6945316917       25.4324745840
  C         7.3504222434        3.7592203668       26.0190134692
  C         8.1730184744        4.4209741247       24.0777376301
  C         6.5286102470        6.0725262573       24.8375168299
  C         7.7325208322        2.6347241383       25.2311003850
  C         6.8537588891        3.4332101764       27.2912565014
  C         8.1952071305        3.0387594874       23.9579689709
  C         8.6181914308        5.1427442504       22.9917956143
  H         5.9845488260        5.7001936903       24.0115123579
  H         6.9097388970        7.0184219922       24.4435751037
  C         5.5415631026        6.4660105725       25.8748051190
  S         7.2901869087        1.1082289559       26.0213012314
  C         6.7750566508        2.0974461390       27.4212143189
  H         6.4573526319        4.1537445641       27.9614990436
  C         8.4919560804        2.5008158370       22.7272477379
  H         8.4916571715        6.2282115287       23.0680207432
  C         8.9632793912        4.5840725874       21.7665500762
  H         5.8260850229        5.9734751547       26.7676304868
  H         5.5603263245        7.5133200137       26.2155973337
  C         4.1627001298        5.8959609975       25.4849457540
  C         6.2602784154        1.4599840712       28.6819512719
  C         8.8655494624        3.2544994180       21.6319684486
  H         8.6619731833        1.4509580077       22.6868143031
  C         9.3363427555        5.0477503205       20.5618889913
  H         4.1341959071        4.8218606359       25.2911532852
  H         3.9539251613        6.3986181623       24.5135756799
  C         3.0714326339        6.2946636755       26.5592039458
  C         6.1624061790        0.0765988666       28.8778574198
  C         5.6276225691        2.1920987379       29.8078590516
  C         9.2142109419        2.6901744390       20.3095316070
  C         9.5703382746        4.0302860381       19.6503352730
  S         9.6075428158        6.6286981312       19.8468921843
  H         2.1776721698        6.7636922895       26.1250736429
  H         3.3860764891        7.0378394689       27.1947722650
  C         2.6326422180        5.0823748463       27.3472271071
  N         6.5181202924       -0.8948301059       27.9312928853
  C         5.6704434928       -0.5766670901       29.9936780143
  C         5.2032443690        1.5827349265       30.9640726098
  H         5.3210674479        3.2569748789       29.7860584829
  C         8.0747022044        1.9413314776       19.6815840144
  C        10.5497561415        1.8616438313       20.2810543660
  C         9.9602501059        4.5468893238       18.3901242082
  C        10.0213366206        5.8587970642       18.3461572647
  H         2.3493471225        4.3575496643       26.5328254679
  H         3.4939657797        4.5860982613       27.8989448056
  C         1.4586101978        5.2775889001       28.3343708399
  S         6.4189457557       -2.4287388380       28.4775147062
  N         5.8655930830       -2.0009966356       29.9722470678
  C         5.3401508733        0.1165218831       31.1559795454
  H         4.6369157271        2.1665935351       31.6892965195
  H         7.6013598941        1.3045239385       20.4852940224
  H         8.4000976584        1.3170564121       18.7838537301
  C         7.0024617508        2.9005500815       19.0854001283
  H        10.8326015715        1.4704251186       19.3120682477
  H        10.4618929486        0.9857897146       20.9159080347
  C        11.7510742424        2.6060574729       20.8138668544
  H        10.1029376075        3.8136810997       17.5802218213
  C        10.1258785629        6.6231221583       17.0832124690
  H         0.9503079397        4.2938848091       28.4794478335
  H         0.6557200344        5.8758878863       27.9386041601
  C         2.0171885643        5.9825451203       29.6146059147
  C         5.1200879912       -0.5247606418       32.4047676846
  H         7.3157118035        3.4074889404       18.1654905356
  H         6.7743341512        3.6583328963       19.8187080099
  C         5.5834131124        2.2701915242       18.8960239399
  H        11.4696752464        3.1267822216       21.7267159879
  H        12.1973054135        3.3599196910       20.0984482895
  C        12.9422756228        1.6952400003       21.2208596446
  C        10.1325255577        8.0401203082       16.9875664426
  C        10.4442914024        5.9063095340       15.8706356499
  H         2.7869094540        6.7981594169       29.4152453409
  H         1.3012566085        6.6267074601       30.1283590980
  C         2.4676562496        4.9718669048       30.6997932564
  H         5.1374777388       -1.5585929310       32.3137628476
  C         4.8378536038       -0.1131822116       33.6753126907
  H         4.9614671159        3.0781144048       18.7290494875
  H         5.0748132632        1.7569686233       19.7200057981
  C         5.5727970616        1.4788648795       17.6277339196
  H        12.6974905075        1.0164787920       21.9912038922
  H        13.3364889798        1.1379414763       20.3812243115
  C        14.0961504857        2.6293190167       21.7600696168
  N        10.0453785449        8.9599036450       18.0346871476
  C        10.5724012733        8.7255471312       15.8138300625
  C        10.8761955309        6.6075581441       14.7326656428
  H        10.6114743276        4.8305961773       15.8494315048
  H         1.7903297216        4.7849738568       31.5293858406
  H         2.6086909310        4.0172121264       30.1562599443
  H         3.5421172739        5.0806783338       30.9426745126
  S         4.4591815691        1.4408367285       34.1972781460
  C         4.7104635298       -1.2193883128       34.6856691432
  H         5.8573769450        2.0082899135       16.6932411786
  H         6.3000698194        0.7362008726       17.7640177716
  C         4.3070706667        0.7388101404       17.2868152735
  H        13.6306137674        3.3196683033       22.5249552135
  H        14.6563074600        3.1966354401       20.9766623082
  C        15.1118977964        1.8742811757       22.5669639187
  S        10.1788903871       10.5239068838       17.5141963009
  N        10.7101125836       10.1253080404       16.0044725121
  C        10.9789208748        8.0959668740       14.6570232667
  H        11.2549369427        6.0346257867       13.9086510984
  C         4.1442465640        0.6561746637       35.7556097819
  N         4.2520855110       -0.7088851797       35.8596407139
  O         4.7545154914       -2.3866137375       34.3490577605
  H         4.3807095287        0.4402909484       16.1962467046
  H         3.4871661334        1.5541614347       17.2304363333
  C         3.8682238679       -0.3643797927       18.2607427452
  H        14.6557892249        1.2278880075       23.2866312371
  H        15.6208672262        1.2135732948       21.8820508091
  C        16.1051763410        2.7922115756       23.2311664056
  C        11.3854837431        8.7919557605       13.4868003481
  S         3.9130530744        1.5608795679       37.2444613671
  C         4.2141138833       -1.4151568519       37.1044120386
  H         4.6203943546       -1.1319522221       18.0968937229
  H         3.9965431042       -0.0747421065       19.2499012398
  C         2.3787965981       -0.7559760055       17.9873079570
  H        15.7905682288        3.2158500309       24.1399445885
  H        16.3314329661        3.6155707920       22.6364800644
  C        17.4369207920        2.0467829171       23.5014873608
  H        11.4086343896        9.8188980163       13.5432807210
  C        11.8908792695        8.3334166607       12.2798569751
  H         3.5544783429       -0.9744339166       37.8390644932
  H         3.6115469227       -2.3181521616       36.8525683363
  C         5.5883413810       -1.7981939296       37.6225935193
  H         1.6967898014       -0.0124930791       17.6533614770
  H         1.9455637244       -1.0207885049       18.9715416907
  C         2.2486595456       -1.7836096469       16.9369239704
  H        17.9233096798        2.5274649042       24.3339049420
  H        17.1549974118        0.9441378031       23.7504703470
  C        18.5919590781        2.0661197969       22.4765697169
  S        12.2670987342        6.7218038236       11.6460385871
  C        12.0965609876        9.3541812565       11.2496306482
  H         6.0980104210       -2.4739836967       36.8738473849
  H         6.2873135819       -0.9919723671       37.7661331518
  H         5.5994128114       -2.2144476840       38.6005665523
  H         1.2316474031       -1.8749137735       16.6172466131
  H         2.5735700234       -2.7669907308       17.3431705334
  H         2.8308461273       -1.4084675812       16.0941710467
  H        18.6172797106        2.9431123414       21.8871086885
  H        18.5680820136        1.3513641161       21.6855896663
  H        19.5757251297        1.9864304937       22.8438403473
  C        12.6885181555        7.4230830606       10.1422015785
  N        12.6035773710        8.7558297964       10.1181422641
  O        11.9386466145       10.5556418163       11.4620020694
  S        13.4681137606        6.5701333381        8.7955505486
  C        12.8862822213        9.5632680971        8.9630387592
  H        13.1404869624       10.5714428461        9.3091144661
  H        13.8170991759        9.2162489755        8.4880941435
  C        11.6567441482        9.6101815407        8.0385961148
  H        10.7553422382        9.6045885887        8.5937361907
  H        11.7014166034       10.3717647269        7.2440928121
  H        11.6152570352        8.7115576843        7.3789249931
  H        21.5050265334       11.8076863353        2.7071445773
  C        21.8179037532       10.8016007374        2.9316111263
  H        20.9038651054       10.2839648274        3.2305904170
  C        22.7870394751       10.7171411109        4.0674250392
  C        22.4295165060       10.0683298622        1.6566949262
  C        22.1483150334       10.7044546527        5.4433526962
  H        23.4594635987        9.8699871833        3.9294001577
  H        23.2803549451       11.6660649624        4.0072787486
  H        23.2045237829       10.6957823497        1.2653176483
  H        21.6427183065        9.7348693531        0.9568694315
  H        22.8449002176        9.1291824930        2.0019486877
  C        21.8158930021        9.3192427160        5.8791125251
  H        22.9139392747       11.0529588864        6.1570410511
  H        21.3258556996       11.4228426984        5.4572117071
  C        20.8152954294        9.4010872169        7.0704852504
  H        22.7046594305        8.8025824245        6.1703289413
  H        21.3799889394        8.7943237310        5.0510952651
  C        19.3596393321        9.4760371629        6.5936930355
  H        20.9366207707       10.3724511252        7.5129067108
  H        21.0514706200        8.7575344853        7.9098826986
  C        18.2931265885        9.9278815652        7.5498015053
  H        19.3816310536       10.2116249955        5.8898279214
  H        19.1005595568        8.5806317594        5.9777239628
  C        17.1890281792       10.8036138990        7.0693829190
  H        18.7231034550       10.3814648872        8.4703263318
  H        17.8588978193        9.0439572274        7.9563964182
  C        17.6232223905       12.1230732977        6.3646324138
  C        16.7433729457       11.5402628506        8.2356740773
  C        16.0980819142       10.0540773990        6.1546987558
  C        17.4483587496       13.2770749979        7.1195909551
  C        18.0092459344       12.4417799591        5.0271293550
  C        16.8920502653       12.8949791669        8.3169651895
  C        16.4765582230       10.9262650707        9.4424306544
  H        16.4568920345       10.0004526450        5.1777507338
  H        15.7987501140        9.0485679119        6.5622520709
  C        14.8500743948       10.9076943781        6.0906710609
  S        17.9206077080       14.6731196808        6.3568043546
  C        18.2561064020       13.7702795015        4.8411014765
  H        18.1643447354       11.6156734085        4.3386651497
  C        16.4613917488       13.4818232530        9.4680983363
  H        16.4159262803        9.8829557208        9.4379558958
  C        16.0391576273       11.5101451807       10.5398318645
  H        15.1387647924       11.8887686794        5.8426606066
  H        14.4461199706       11.0934638254        7.0798607736
  C        13.7689801589       10.3202906527        5.2222164660
  C        18.7489837017       14.4045214271        3.5435311941
  C        15.9826921922       12.8099138233       10.5960339143
  H        16.5327594466       14.5818737982        9.4639584821
  C        15.7190148387       11.1022308257       11.8075021908
  H        12.9681231614       11.0375783414        5.2240345577
  H        13.3011177138        9.4108378857        5.6596748650
  C        14.2114774614        9.9499128378        3.7810120786
  C        18.8057167495       15.7865837696        3.3277657446
  C        19.0046881212       13.5711137554        2.3325969992
  C        15.5987177355       13.5745864946       11.8436983405
  C        15.3765058415       12.2538332729       12.5627298735
  S        15.2418078138        9.6499480320       12.5156165554
  H        14.7726983597        8.9967786379        3.8416224877
  H        14.9610837796       10.6119800865        3.4147544712
  C        12.9104120473        9.9004197656        2.9217242173
  N        18.5234802331       16.7486011899        4.3093637726
  C        19.0549870086       16.2883055592        2.0611526952
  C        19.2191324874       14.0985696532        1.0599410703
  H        18.8128616859       12.5137830939        2.3521003516
  C        14.2538103516       14.3499587053       11.8290137864
  C        16.8166411467       14.3332380973       12.4254977174
  C        14.9306116430       11.8364563424       13.8495567519
  C        14.7708234443       10.4858127020       13.9758507840
  H        12.2112311911        9.1339502083        3.3620289560
  H        12.3438650654       10.8232382393        3.0620573367
  C        13.1586632375        9.4665267797        1.5240638736
  S        18.4397158962       18.1945931681        3.5499071693
  N        18.9959397856       17.7024326020        2.1483888537
  C        19.2884744831       15.6053875523        0.8765844567
  H        19.2389555438       13.4749530611        0.1195265658
  H        14.3266574251       15.2007318409       11.1696399699
  H        14.1094169990       14.8673765909       12.7556589603
  C        12.9689126784       13.5767451071       11.4556307379
  H        17.2500731280       14.8978957041       11.6248123231
  H        16.4357901357       15.0465241203       13.1350964708
  C        17.9151156034       13.4951393988       13.0721351569
  H        14.8948113357       12.6825344787       14.5110645071
  C        14.4274185034        9.6459056371       15.1621603916
  H        12.4219957242        8.7630113226        1.1647182716
  H        14.0626101552        8.9312563396        1.4864254322
  C        13.3205376879       10.5990074143        0.5175347470
  C        19.3386675550       16.2734306347       -0.3515197084
  H        13.1257154678       13.0098254356       10.5120334815
  H        12.6114188419       12.8510938015       12.2173186415
  C        11.7379091733       14.4238186240       11.4070173054
  H        18.1762346035       12.6740788470       12.4380613304
  H        17.4730561433       12.9619886267       13.9440583582
  C        19.0505342783       14.3061394505       13.5557498664
  C        14.4037161196        8.2542586136       15.3635004359
  C        14.1870674555       10.4111424899       16.4122962812
  H        12.3903398853       11.1346047134        0.2844100524
  H        13.9995280058       11.2926061410        0.9669407541
  C        13.8217685195       10.1718342375       -0.8238037733
  H        19.0981199186       17.2793190833       -0.2897340787
  C        19.5554173263       15.8733741765       -1.6328643859
  H        11.8420805576       15.2041432383       10.7101877905
  H        11.6240290737       14.7799321274       12.4407711005
  C        10.5491509737       13.5155234558       11.0555171607
  H        19.5604168079       14.7652115487       12.6932418062
  H        18.8251320077       15.1299766543       14.1952693279
  C        20.1333148693       13.4958208980       14.2650607851
  N        14.7702711087        7.2870693468       14.3392293640
  C        14.0111381869        7.6181228931       16.5514575241
  C        13.8801143571        9.8349241591       17.5886940147
  H        14.1207887932       11.4635694012       16.3006834353
  H        14.6332367452        9.5150021348       -0.6073275474
  H        14.0585407168       11.0349683691       -1.4676095139
  H        13.1391947297        9.5064447171       -1.3275923163
  S        20.0296945273       14.2209731633       -2.0873805667
  C        19.3701399725       16.8094110263       -2.7726172449
  H        10.8800340377       12.8511613661       10.3162708649
  H        10.1439991103       12.9691610922       11.8932572899
  C         9.4227891850       14.3858954518       10.4395528406
  H        20.2090744200       12.4817506514       13.9179916916
  H        19.8880068193       13.3016978241       15.3143324637
  C        21.5361761814       14.1567393110       14.1805800482
  S        14.5925205321        5.8165914948       14.9831207943
  N        14.1247324852        6.2093702285       16.4177367443
  C        13.6648184620        8.3185528524       17.6770476454
  H        13.6605901432       10.4688079954       18.4340141829
  C        20.1632299852       14.8875297586       -3.6932580003
  N        19.7914675513       16.1685545854       -3.8960279720
  O        18.9808136086       17.9718352760       -2.6292205916
  H         8.7263570639       14.6721421905       11.2855258584
  H         9.7570103105       15.3038045188        9.8566980557
  C         8.7938372712       13.4421970657        9.4063434792
  H        22.2171338815       13.4208547075       14.5343573646
  H        21.8470286995       14.1781258967       13.1365497155
  C        21.7399792941       15.4002224823       15.1194968358
  C        13.3457812475        7.5711789934       18.8663111896
  S        20.3783397990       14.0033551351       -5.2087142337
  C        19.8237474038       16.9841664174       -5.1003464894
  H         9.6065254918       13.2009593715        8.7000246181
  H         8.4858055267       12.4892823345        9.9004368593
  C         7.5395077266       13.9870055710        8.6694326153
  H        22.6167277241       15.3009933909       15.7850194292
  H        20.8132157278       15.5653020383       15.6118805689
  C        22.1068113338       16.6094372049       14.3420655806
  H        13.6075094408        6.5462079932       18.7594105907
  C        12.9257131403        7.8975372672       20.1637073606
  H        20.6820259772       16.7150605180       -5.8093684462
  H        20.1686140478       17.9247265121       -4.7553143969
  C        18.3928257072       17.0831363313       -5.5604003110
  H         7.3917049851       13.4906990271        7.7034256129
  H         7.7143823879       15.0117829572        8.4158100804
  C         6.3218820008       13.7585384770        9.6028539913
  H        22.8371152050       16.4352002630       13.5146761374
  H        21.1695579296       16.9715796069       13.8716993293
  C        22.6378580405       17.7990719829       15.2545822659
  S        12.3207937358        9.4267245252       20.6518165137
  C        12.8861503995        6.7848056241       21.1304623641
  H        18.3314356359       17.6892629746       -6.4591314548
  H        17.7210595023       17.6667383216       -4.8570885792
  H        17.8927394675       16.1246150935       -5.7247514394
  H         5.4496417407       14.1943852237        9.0217776287
  H         6.0410690645       12.7465274530        9.7799456013
  H         6.4131589588       14.4203304173       10.5271620896
  H        23.2899272132       17.4742225053       16.0467357583
  H        23.1796040824       18.4981314991       14.6615238806
  H        21.8875514443       18.3871163057       15.7544560201
  C        12.0960425966        8.5793761732       22.2212234256
  N        12.3117402514        7.2549481823       22.2090643456
  O        13.1689664659        5.6316343123       20.9162165875
  S        11.4795385111        9.3877045788       23.6178224383
  C        12.0992308777        6.5251845499       23.4483322066
  H        11.8814451727        5.4409055854       23.2550694758
  H        11.2172809334        6.9442455497       24.0607160877
  C        13.3844631845        6.3953563877       24.1716029022
  H        13.1257876210        5.7882068337       25.0636512514
  H        13.7855323028        7.3312327001       24.6754243807
  H        14.0765094160        5.9528156274       23.5235319137
