352
 i =    96800, time =    96800.000, E =        25.1419842373
  H        10.3551241343        4.9134821825       32.0571559757
  C        10.0878828931        6.0025602963       32.0052487963
  H         9.0048657029        6.1519963505       32.0818763590
  C        10.7045546710        6.8916559224       30.9859320979
  C        10.5869036647        6.4464462554       33.4178895751
  C        11.2040673179        5.9247194470       29.8127576434
  H        10.0352348173        7.5401854449       30.5197172715
  H        11.5418216756        7.5105605413       31.2024807308
  H        10.0788604968        7.3731655266       33.6029362881
  H        10.2142585207        5.7401610359       34.1789050139
  H        11.6469201690        6.6527534224       33.4690585329
  C        10.2721925281        5.2958805873       28.8560529730
  H        11.7240550205        5.0668556356       30.2872092659
  H        12.0014692356        6.4301141705       29.2653295071
  C        10.8455885450        5.5233371511       27.4292746960
  H        10.2175833071        4.1641464420       29.0384696882
  H         9.2577579874        5.6069303546       29.0087698530
  C         9.8883387581        4.9177884493       26.3627374244
  H        11.8611112971        5.0912626067       27.2823330676
  H        10.9382617104        6.6307020712       27.2401543235
  C         8.6931470702        5.8687075592       26.0719554532
  H        10.5609426771        4.7319512548       25.5091720507
  H         9.6931367566        3.9753202904       26.7552902307
  C         7.5155856037        5.1690210531       25.3109013329
  H         8.3160991996        6.3661837106       27.0006355250
  H         9.1573655167        6.6627349926       25.5008959201
  C         7.0663149333        3.9278389144       26.1315640997
  C         7.9013681531        4.3750495549       24.1667240226
  C         6.3475122952        6.1823351482       24.9473478004
  C         7.2790084822        2.7682706504       25.3885458123
  C         6.6051492510        3.5716783036       27.3996047833
  C         7.8046644136        3.0050773588       24.1398589394
  C         8.4270433236        5.0324487518       23.0532442267
  H         5.8886066496        5.8742812161       24.0744410264
  H         6.7760447254        7.1976544297       24.6751303853
  C         5.2998381376        6.4504288482       26.0540717310
  S         6.6978072142        1.3191506899       26.1682838981
  C         6.3619045250        2.2250135435       27.5682569685
  H         6.4716191414        4.3407221488       28.1157245006
  C         8.2450150789        2.3316225416       23.0109951096
  H         8.4541593700        6.1115755180       23.0937126384
  C         8.8246716556        4.3357839103       21.9072412860
  H         5.8311731190        6.3566279181       26.9693384972
  H         4.9533118587        7.4794036086       25.9740064289
  C         4.0489461105        5.6583398443       26.0070929385
  C         5.9994551177        1.5573563811       28.8165823233
  C         8.7163929971        3.0096163328       21.8612047106
  H         8.3285447053        1.2246103812       22.9802026423
  C         9.2126956527        4.6558485178       20.6727394887
  H         4.3900902001        4.6596634214       26.2261365524
  H         3.7363674283        5.6620942609       24.9671281878
  C         2.9442678086        6.1185602442       26.9683000125
  C         6.0345359827        0.1660152357       29.1514015136
  C         5.6069070571        2.3660596435       29.9932131437
  C         9.1569995121        2.1994155756       20.6395632201
  C         9.4364790284        3.5687395610       19.9143229476
  S         9.4795170539        6.1368444301       19.9012200123
  H         2.2077990346        6.7160277701       26.5165414786
  H         3.4078049601        6.7477569753       27.7247095998
  C         2.3306446537        4.9122934391       27.6930805988
  N         6.5079035885       -0.8146189912       28.2765887555
  C         5.6512589723       -0.3490653851       30.4132723504
  C         5.2439952731        1.9286378269       31.2760861302
  H         5.5366121655        3.4213236177       29.7567905108
  C         8.0279088776        1.4020932396       19.8894694962
  C        10.4460432896        1.3884986590       20.8676091324
  C         9.9859248391        3.9827286145       18.6813145697
  C         9.8966831915        5.3240434581       18.4666943187
  H         2.0289723564        4.1547147225       26.9508494024
  H         3.0689070787        4.4788417484       28.3291093644
  C         1.1160657013        5.2238891712       28.6877703326
  S         6.3318888673       -2.2633639110       28.9700058044
  N         5.7411244066       -1.7572024767       30.4110673866
  C         5.3017457389        0.4679380296       31.5499178732
  H         4.9853687618        2.6448049022       32.0196621989
  H         7.5564839029        0.6361465962       20.4563567782
  H         8.4330784338        1.0524258291       18.9670344712
  C         6.8592424330        2.2795965493       19.4783810823
  H        10.6931755325        0.8934833197       19.8526618248
  H        10.3104302739        0.5825961321       21.5559418954
  C        11.6198135896        2.2848357463       21.2753046848
  H        10.1040297466        3.2189665704       17.9525595205
  C        10.3218877598        6.1369598876       17.2464412339
  H         0.6238491525        4.2905039982       29.0439460094
  H         0.3254517793        5.8244042170       28.3072017318
  C         1.5732798694        5.8827715564       29.9918761060
  C         5.0496351117       -0.2352791478       32.8229459016
  H         7.1292686103        3.1333496498       18.7936202399
  H         6.4195678769        2.7502489655       20.2971573983
  C         5.8955937044        1.3882873217       18.6017736241
  H        11.2549595228        3.1526067184       21.7588952800
  H        11.8974461794        2.7024204915       20.2949163167
  C        12.7842248098        1.4922864114       21.9182450361
  C        10.3401236406        7.5587277813       17.1255647829
  C        10.5922884250        5.4244784697       16.0300765936
  H         2.3243671702        6.5773196107       29.7649823544
  H         0.7256874095        6.4426125594       30.2075374061
  C         2.0387976486        4.9087709100       31.1020972741
  H         5.1311535530       -1.2853189207       32.7143621473
  C         4.7572012900        0.1588286511       34.0952225149
  H         5.7959464237        0.4697482450       19.0538872892
  H         6.3593935070        1.2723725954       17.6729375055
  C         4.6114457351        2.1307294505       18.3329344906
  H        13.0364685233        2.0114353458       22.8620742562
  H        12.3686909159        0.5006207372       22.1837675564
  C        14.0330752959        1.3558679719       21.0025527289
  N         9.9897943846        8.4171905950       18.1674070826
  C        10.5898933873        8.1600345003       15.9143185402
  C        10.9401804782        6.0191423362       14.8397436279
  H        10.5964683738        4.3357786330       15.8801866883
  H         1.2343951854        4.2283555057       31.4759688201
  H         3.0010179012        4.3333774242       30.8672233358
  H         2.3168019938        5.6307452382       31.8986858039
  S         4.4559440598        1.8763628902       34.4566582595
  C         4.5791414091       -0.7585543248       35.2589054065
  H         4.5744100976        2.8605573828       19.1911249554
  H         4.6830006610        2.7283555458       17.4000699285
  C         3.4721910278        1.2754642292       18.6234897431
  H        14.1352702326        2.3652406398       20.4290747762
  H        13.8598902317        0.4903775906       20.3824063456
  C        15.3503185999        1.1435672460       21.7897548384
  S        10.1216439533        9.9075268111       17.5309440985
  N        10.4772027209        9.5287228651       16.0233587339
  C        10.9450828544        7.4863564029       14.7501244668
  H        11.1844642198        5.4470670119       13.9784180791
  C         4.1281043269        1.2125602875       36.0903726913
  N         4.1491681225       -0.1015082937       36.3055617517
  O         4.8388970923       -1.9497943643       35.1394790342
  H         2.5371009156        1.7868435697       18.7193956278
  H         3.6941131297        0.9392328859       19.6148241596
  C         3.3476975516        0.1091107202       17.6451400599
  H        15.1419677231        0.5909905480       22.6241611250
  H        15.9917748586        0.4463607376       21.2828085483
  C        16.1562683211        2.4176670074       22.1783086624
  C        11.2466063869        8.2261387759       13.5714121475
  S         3.7811015225        2.3071225806       37.4358742965
  C         4.1701914036       -0.8170672505       37.6345840000
  H         3.4372469477        0.6363029594       16.6065797342
  H         4.2301909561       -0.4915029955       17.6083747296
  C         2.0633406321       -0.6783655129       17.8684050839
  H        15.4547497420        3.1647071615       22.5408961136
  H        16.5355112122        2.8648456484       21.1778117409
  C        17.2943065389        2.1598191432       23.0167355950
  H        11.3072304498        9.3222346748       13.7777252402
  C        11.6419645269        7.8662720043       12.2821940163
  H         3.3853484121       -0.3838468952       38.2847993796
  H         3.8010528754       -1.8050635366       37.4780195848
  C         5.5532532596       -0.7105362598       38.2232535209
  H         1.5284980151       -0.9833970424       16.9835940022
  H         1.2039838775       -0.0923433079       18.3612144671
  C         2.1733497722       -1.9354683859       18.7247082375
  H        17.4575777872        2.9794439614       23.6710171423
  H        17.0523688136        1.3571480188       23.7591763544
  C        18.6644070245        2.0196619010       22.4049987047
  S        12.0617046227        6.2947788662       11.7623967117
  C        11.9216965782        8.9577334856       11.3706212382
  H         5.3377369564       -0.5363857339       39.3190050487
  H         6.2641892566       -1.6236378578       38.2277321606
  H         6.1814619410        0.2275064510       37.9288700667
  H         3.1435450706       -2.0196557928       18.9933762553
  H         1.7679220641       -2.8065781186       18.2000000923
  H         1.5697547008       -1.6952495982       19.5773552887
  H        19.3434737053        1.6152479324       23.1258042267
  H        18.8954862056        3.0305957221       22.1236854377
  H        18.6473888092        1.4457698009       21.4102599914
  C        12.4545088635        7.0831022289       10.1889361439
  N        12.4752543452        8.4881552168       10.2191581618
  O        11.7807078150       10.1874647895       11.6520550470
  S        13.2928138059        6.2510468239        8.8737725798
  C        12.7890931931        9.3890392754        9.1184611413
  H        13.0274476143       10.3712248468        9.5309786506
  H        13.6620575348        8.8085480549        8.6794353549
  C        11.6801853350        9.4931224950        8.1904217946
  H        11.5702871936        8.6176239606        7.5324070448
  H        10.7511796181        9.5746171153        8.7450814199
  H        11.7821982768       10.4015599962        7.6415499834
  H        21.6317004450       10.8029225531        3.0545593992
  C        22.2629676061        9.8722894981        3.1579109956
  H        21.6431573840        9.0185560995        3.0292093961
  C        22.9825854293        9.9219607388        4.5835936665
  C        23.3487034335        9.8544922293        2.0520472216
  C        21.9753705959       10.2001033424        5.6982406068
  H        23.4078878198        8.9653554468        4.7603412959
  H        23.6052653862       10.8225882123        4.4992542324
  H        24.3000890868       10.1057664399        2.5551153215
  H        23.0478505290       10.6462570856        1.2773513480
  H        23.4927728729        8.8505097453        1.6157162646
  C        21.2090723569        8.9924181509        6.0236884139
  H        22.4157384888       10.6396834032        6.6014476352
  H        21.3564945335       10.9582040425        5.1668302461
  C        20.5610311151        9.1369112356        7.3924171349
  H        21.8297003906        8.1015208483        5.9247306580
  H        20.4303224653        8.8488884391        5.2435645893
  C        19.3927102058       10.1022478768        7.4336177669
  H        21.1733603660        9.4506030925        8.2496262565
  H        20.1656992321        8.2056561950        7.7691826777
  C        18.0380125151        9.6030608718        6.9523973223
  H        19.2307601938       10.4968342123        8.4301794586
  H        19.5600940668       10.9406206348        6.7068275919
  C        16.9227249251       10.6734038498        6.8556688430
  H        17.7130752156        8.8417819872        7.6260308022
  H        18.2467754929        9.0638231104        6.0283138485
  C        17.3577380241       12.0368049003        6.1289183138
  C        16.6305986208       11.4293389097        8.0394073631
  C        15.5988388145       10.0539301495        6.2173147130
  C        17.2540991798       13.1128762838        6.9561845512
  C        17.7259270892       12.3093001416        4.8250726454
  C        16.7325074114       12.7251368566        8.1413231915
  C        16.1523599916       10.7630381420        9.1553934049
  H        15.8634907404        9.5733603075        5.2973956678
  H        15.2892283724        9.2152862662        6.8233586568
  C        14.3331498291       10.9264443070        5.9710604778
  S        17.7244345366       14.5863024747        6.1080219497
  C        17.9244039280       13.6674507847        4.6640828679
  H        17.7578362365       11.6141137668        3.9805168402
  C        16.3390165308       13.3876242395        9.3188779859
  H        16.0038423758        9.7330860727        9.0185380456
  C        15.8258982528       11.3179089191       10.3501501936
  H        14.4871519575       11.9816169275        5.8385776698
  H        13.8698038077       10.9825230656        6.9547170069
  C        13.2807528851       10.4550014089        4.9311681430
  C        18.2773935790       14.2874642181        3.3402019958
  C        15.8419246722       12.6725911456       10.4561337999
  H        16.5050233822       14.4865262789        9.3154098951
  C        15.3750327281       10.8861315931       11.6170437463
  H        12.3490397828       10.9325080810        5.1824661482
  H        13.0648235013        9.3621161128        5.0260862028
  C        13.7439899791       10.8343395797        3.4933258277
  C        18.4002634894       15.6933347790        3.0981380578
  C        18.6877525327       13.4276869245        2.2139696896
  C        15.4487391806       13.3675279547       11.6963374843
  C        15.1594824941       11.9554986715       12.4255915324
  S        15.0795817057        9.2815642254       12.2491545134
  H        14.8412970881       11.0440361068        3.5711942407
  H        13.0939745888       11.7019555784        3.2915589680
  C        13.5121623924        9.8657122173        2.3665516897
  N        18.1291423776       16.6945553453        4.0078123749
  C        18.5785474200       16.2300004641        1.8351095520
  C        19.1156839429       13.9723217066        1.0124049596
  H        18.7599838523       12.3466007738        2.3688694208
  C        14.1763715834       14.1874557980       11.3638762439
  C        16.6209789787       14.2197903165       12.2761666759
  C        14.7074732203       11.3981382901       13.6712375360
  C        14.6544312727       10.0167366074       13.7432326503
  H        14.1465245459        8.9503019162        2.3788287184
  H        12.5230251838        9.4335354746        2.4103983760
  C        13.7444465840       10.4484224026        0.9437875395
  S        18.3364877929       18.1496826508        3.3427335278
  N        18.6341326764       17.6520829722        1.8439839368
  C        19.0324167905       15.4385867581        0.7580928966
  H        19.4856763679       13.3109230676        0.2994736940
  H        14.5392737251       15.0756899675       10.7971842923
  H        13.6725706037       14.6121583759       12.2583595624
  C        13.0713693488       13.4795254337       10.5772179701
  H        16.7345617551       15.1248307852       11.6386413016
  H        16.4421443833       14.4926576361       13.3033777938
  C        17.9271129026       13.4929093018       12.3003136737
  H        14.3292984169       12.0841214944       14.4141862970
  C        14.2634191704        9.2846241089       14.9612311645
  H        14.6058467644        9.8481053422        0.5471080551
  H        14.0141566429       11.4707241868        0.9491651508
  C        12.4398614207       10.3609794957        0.0989431913
  C        19.3091375564       16.1446286810       -0.4060243763
  H        13.4142830578       13.2276839752        9.6122538175
  H        12.7753291700       12.5339568776       11.0522784649
  C        11.8261546184       14.3656944967       10.2497182364
  H        18.4260767478       13.5894088309       11.3334424473
  H        17.7675809594       12.4331744150       12.5547274173
  C        18.7766861499       13.9794787360       13.4054644810
  C        14.3068021700        7.8923315170       15.1591964245
  C        13.8479199973       10.0165097676       16.1725807140
  H        12.1319887824        9.2870160323        0.0513236982
  H        11.6638613741       10.8645041951        0.5809406546
  C        12.7097594998       10.8448287841       -1.3375062589
  H        19.2979195767       17.1992947743       -0.3152856128
  C        19.4864248428       15.7376987479       -1.6691102093
  H        12.2976352831       15.0474800439        9.5590663005
  H        11.4584923134       14.8438694827       11.0911025417
  C        10.7715601836       13.5482249721        9.6336905756
  H        18.3085574823       14.8582155479       13.9424689509
  H        18.8436601491       13.1087424991       14.0440045760
  C        20.1402197151       14.4246237065       12.9245997746
  N        14.5666852064        7.0298428481       14.0864158951
  C        13.8655175872        7.2529546592       16.2959040652
  C        13.5456582708        9.3899384863       17.3826988480
  H        13.6632636566       11.0020972116       16.1044022284
  H        12.6057959203       11.8890607836       -1.4992490605
  H        11.9417929805       10.3368244310       -1.9464085200
  H        13.7402234156       10.5527326509       -1.6878413472
  S        19.7372817775       14.1179301097       -2.1177312831
  C        19.6376047813       16.7550630310       -2.7410689480
  H        10.1636277573       14.2007155573        9.0115543556
  H        11.2340386840       12.8126194314        8.9936285780
  C         9.9225577719       12.7546166397       10.6432578818
  H        20.0984315984       15.3931827769       12.4657557020
  H        20.2913680012       13.7926379175       12.0587281360
  C        21.2485311086       14.3426988274       13.9994232103
  S        14.3012070852        5.5788680682       14.6223857925
  N        13.7832835623        5.8726819784       16.0987153555
  C        13.5437490666        7.9083256820       17.5201828931
  H        13.3351014857        9.9554809203       18.2422640289
  C        19.9525703418       14.7598623560       -3.8036442542
  N        19.8284812077       16.1033347894       -3.9383946091
  O        19.5286336783       17.9649824503       -2.5150256717
  H         9.3491822068       12.0257908145       10.0047149724
  H        10.4250744983       12.2034654323       11.3752386324
  C         8.8849470384       13.6599202705       11.3126271283
  H        20.8408410974       14.1057050272       15.0073534528
  H        21.9296288297       13.4888427897       13.8644291297
  C        22.0604568043       15.6463933677       14.1081489170
  C        13.2645136210        7.1573124259       18.6913657270
  S        20.3381820023       13.8387078367       -5.2879964637
  C        19.9035735352       16.9504914322       -5.1288891418
  H         8.5106317655       13.2001897592       12.2134719137
  H         9.3336632084       14.6076640360       11.7036616650
  C         7.7013998725       14.1555941386       10.4817924963
  H        22.5480631486       15.8100521736       13.1413622725
  H        22.7894107559       15.5487861546       14.9129456200
  C        21.2382894233       16.8967190019       14.4148604147
  H        13.5525163583        6.1170299968       18.6610805943
  C        12.9241886006        7.5775760369       19.9758748409
  H        20.3909840657       16.3961771585       -5.9556755665
  H        20.4277472033       17.8405427626       -4.8894837181
  C        18.5057150102       17.4309711187       -5.6284717502
  H         8.1371826870       14.6565214931        9.6287982638
  H         7.0488895408       14.8555110464       11.0675553675
  C         6.8297834258       12.9515740973       10.0153536236
  H        21.3017413618       17.5506438846       13.5597596548
  H        20.1728664437       16.7696064739       14.3993278453
  C        21.6472568338       17.6258045113       15.7045464998
  S        12.4195901012        9.1356498843       20.4985151456
  C        12.6644629649        6.5391957591       20.9935328581
  H        18.6464048264       17.7601449247       -6.6136759520
  H        18.0980159216       18.2255004095       -4.9807239295
  H        17.7872676860       16.6562279053       -5.7695781190
  H         6.8835846184       12.8516118050        8.9188737852
  H         7.0259619282       12.0231506950       10.5257207793
  H         5.7783393443       13.1421314942       10.1883639791
  H        21.8263371151       16.8941421323       16.4808639561
  H        22.5381628543       18.2434902500       15.5995943015
  H        20.8471202037       18.2741230975       15.9931251054
  C        11.7827022892        8.4260220645       21.9317473866
  N        12.0287649821        7.0840361117       22.0908914950
  O        12.9458756837        5.3171143812       20.8615861626
  S        11.3520648918        9.3072417299       23.4127201694
  C        11.7650976523        6.3564416668       23.2471326815
  H        11.6071962114        5.3374672859       22.9174725014
  H        10.8927521508        6.6362035553       23.7701044476
  C        12.9045884769        6.3883365121       24.1828462175
  H        13.7233948465        6.2460924770       23.4674242916
  H        12.7991248397        5.6473642750       24.9691879007
  H        13.0714628428        7.3679096751       24.6735121352
