352
 i =    66100, time =    66100.000, E =        24.9042742349
  H        10.5779169674        4.6324069740       31.4017512051
  C        11.1099844114        5.5500370403       31.7496035660
  H        10.2754186802        6.1512363254       32.2244060911
  C        11.7424094396        6.4265276506       30.6748370921
  C        12.1949551529        5.2597229799       32.8333162356
  C        12.4302085855        5.5312554514       29.6503863634
  H        11.0378753251        7.1199380034       30.2582678392
  H        12.4814558562        7.0139176229       31.2347117893
  H        11.8213916416        4.6928257669       33.6551092523
  H        12.9969877777        4.7012976736       32.4298439673
  H        12.4821128243        6.2103211425       33.3025455043
  C        11.5561720040        4.7492687561       28.6307173743
  H        12.9648628213        4.7547203269       30.1935004795
  H        13.2567478273        6.0353912572       29.1592100468
  C        10.8983977138        5.6700289199       27.6342147662
  H        12.1293510107        4.0010354244       28.1451435685
  H        10.7754042183        4.2065128785       29.1332247808
  C         9.8104588634        4.9326782939       26.8057985323
  H        11.6393072498        6.1049670916       26.9844599188
  H        10.4189021070        6.5004561105       28.2720393616
  C         8.7504012241        5.7963625932       26.2571834942
  H        10.3465007133        4.3174246391       25.9985653635
  H         9.3893579387        4.2306534123       27.5493375175
  C         7.6920533984        4.9628808450       25.4825201478
  H         8.3139213056        6.4032040473       26.9778102708
  H         9.2393037087        6.5079955171       25.6096862585
  C         7.3283768815        3.6312573071       26.1547511783
  C         8.2137454272        4.2943319047       24.2218104896
  C         6.5101878556        5.8294117383       24.9720035899
  C         7.6555392169        2.5610155751       25.3229445110
  C         6.6940589453        3.1535494746       27.3278144577
  C         8.1663934085        2.9588121684       24.1023730873
  C         8.5270506274        5.0090187598       23.1003837237
  H         5.9809187421        5.2741986620       24.1254693750
  H         6.9152707584        6.8093880919       24.6127468151
  C         5.3956199582        6.1944515156       25.9662662357
  S         7.4706048309        0.9948493276       25.9902692842
  C         6.7600689002        1.7327708266       27.4496834256
  H         6.2589232608        3.9283281520       27.9299483457
  C         8.4513132707        2.3508919369       22.9230486500
  H         8.4154039664        6.1122654701       23.1465434798
  C         8.8068958675        4.3845852372       21.8985564887
  H         5.3529811446        5.4063078561       26.6072697834
  H         5.7215899234        7.0814453545       26.4961324433
  C         4.0131649109        6.3742122757       25.2603601977
  C         6.3182007456        1.0155935330       28.6502391031
  C         8.7630082881        3.0230719869       21.7608719025
  H         8.4188027415        1.2835885358       23.0049535147
  C         9.1759283508        4.7952195542       20.6548072140
  H         3.6972347088        5.5420520386       24.5780193669
  H         4.0462247054        7.3172000658       24.6072225085
  C         2.9512894866        6.5059626893       26.2846230607
  C         6.4263021512       -0.3776000084       28.9004260837
  C         5.8380257098        1.8426668262       29.7523999018
  C         9.0886409194        2.3552848066       20.4309671911
  C         9.3155861574        3.7099807451       19.7796390301
  S         9.6041958659        6.3109992145       20.0047825812
  H         2.1104917811        6.9931866235       25.8435120695
  H         3.3472925008        7.1233219532       27.0518026337
  C         2.3318160292        5.1892836988       26.6692294088
  N         6.8778879797       -1.2797016112       27.9325113920
  C         6.0995714153       -0.9375348823       30.0574087932
  C         5.5685069106        1.2686567486       31.0150934363
  H         5.6497352498        2.8607148173       29.6401039373
  C         7.9308298497        1.5624261876       19.8929473281
  C        10.3793440508        1.4479355626       20.4753614405
  C         9.7175651668        4.1628744124       18.4944732900
  C         9.8927691766        5.5202308512       18.4883899742
  H         1.7551706423        4.8516899746       25.7356127421
  H         3.1190581100        4.4268832009       26.7762797572
  C         1.5889970384        5.2073484324       27.9363777971
  S         6.7578195880       -2.7918093563       28.5656800312
  N         6.1871913063       -2.3645471313       30.0325020093
  C         5.7328338181       -0.1598813097       31.1700150082
  H         5.1700241137        1.8372037707       31.8106793532
  H         7.6316499978        0.7471725585       20.5745667166
  H         8.3242002512        1.0436255467       19.0049201630
  C         6.6724507708        2.3775983296       19.4401820608
  H        10.5298730804        1.3150137950       19.4121286448
  H        10.2352440441        0.4131169087       20.8780189466
  C        11.5915390335        2.0342077855       21.1535984674
  H         9.9423350179        3.4567349094       17.7432150009
  C        10.2287599484        6.2405255089       17.1961709169
  H         1.1690567337        4.2503523252       28.0107254705
  H         0.6204884522        5.8199557771       27.8651784534
  C         2.3018888509        5.6326910699       29.1155319525
  C         5.4765744189       -0.7723243529       32.4130922499
  H         6.8654144313        3.0265491691       18.5500897665
  H         6.3623520103        3.1370988449       20.1577609288
  C         5.3937678216        1.5645699832       19.2238408159
  H        11.5167948635        2.4769143642       22.1221854140
  H        11.7973178385        2.9177473930       20.4901297174
  C        12.8623215316        1.1941119703       21.3171524172
  C        10.2519694119        7.7013534237       17.1008544733
  C        10.4968372030        5.4878121593       15.9498303783
  H         3.2890315784        5.0463345449       29.2198845387
  H         2.3894759932        6.6873753049       29.0883335708
  C         1.5126784481        5.2468803882       30.4320780450
  H         5.3169519995       -1.8279696913       32.2679792835
  C         5.0771562646       -0.3381341812       33.6669390995
  H         4.6617848524        2.3512713344       19.3864140049
  H         5.2690686280        0.7547821712       19.9671450577
  C         5.1944874995        0.9767315205       17.8524318931
  H        12.6556134608        0.3758937926       22.0016174185
  H        12.9509167012        0.6946875728       20.3663148236
  C        13.9579629340        2.1006948150       21.8385951376
  N        10.0912011036        8.6191677895       18.1645595667
  C        10.5123738821        8.3114279145       15.9010661092
  C        10.8378559863        6.1503719485       14.7952079808
  H        10.4508543356        4.4175610474       15.8212262257
  H         0.6430776900        4.5836342828       30.2718177302
  H         2.1632695666        4.6273223864       31.0607347674
  H         1.2884777801        6.1152213920       30.9681924402
  S         4.7873192749        1.2392389804       34.2319245812
  C         5.0824254187       -1.4060745713       34.7442431535
  H         5.7373393118        1.6180897062       17.0972263975
  H         5.6154753381       -0.0220453414       17.7736333229
  C         3.7165125452        1.0143949605       17.3899700516
  H        13.4950015348        2.8364738766       22.4599502607
  H        14.3152130097        2.7805760194       21.0562515376
  C        14.8781849237        1.2724862270       22.7080358702
  S        10.2091977480       10.1620047416       17.5977037344
  N        10.4609922421        9.6981571720       16.0897463324
  C        10.8772234753        7.6329801275       14.7273628182
  H        11.1989281520        5.5693650405       13.9284167952
  C         4.4116504321        0.5374437958       35.7965982860
  N         4.6801113701       -0.7962672119       35.8739910013
  O         5.4639118989       -2.5450129444       34.4899639774
  H         3.5762098071        0.8422506122       16.3093535395
  H         3.0995122204        1.9670087393       17.7057529925
  C         2.8822583676       -0.0856886547       18.0917276013
  H        14.2883262462        0.9172986157       23.5930757507
  H        15.2703566661        0.3537509989       22.1649986540
  C        16.0834784287        2.0892167244       23.2008361088
  C        11.1710994850        8.4287762393       13.6090220067
  S         4.3170510351        1.3322173266       37.3597543844
  C         4.7237490703       -1.5035297795       37.0862786142
  H         3.1203476700       -0.0779655775       19.1578332103
  H         1.7834563673        0.1848578824       17.9781606427
  C         2.9874070206       -1.4756878172       17.5707673990
  H        15.8722257794        2.7608943783       24.0068915590
  H        16.3025057127        2.7817880816       22.3795593356
  C        17.2816126137        1.2661695045       23.5511127691
  H        10.9345709677        9.4623864835       13.7594139515
  C        11.7072662585        8.1248402462       12.3670829685
  H         3.9346364292       -1.2380589321       37.8060842524
  H         4.4250212092       -2.5164917002       36.9179145733
  C         6.1209992157       -1.6050901436       37.7844879427
  H         2.6016151053       -2.1610343457       18.3611730745
  H         4.0239209288       -1.6665958638       17.5179939136
  C         2.3379523498       -1.8911280635       16.2507054575
  H        17.1442476052        0.7683563296       24.4956965814
  H        17.3716035535        0.5225343040       22.8598824438
  C        18.5806325683        2.0065327567       23.3693707687
  S        12.3520325943        6.6385981015       11.8884110120
  C        11.8056105094        9.2085269620       11.3207938076
  H         6.3847067600       -0.6984843105       38.3081309190
  H         6.1418003480       -2.3925499928       38.5160344402
  H         6.9172147173       -1.8894652769       37.0568316411
  H         1.1939953274       -1.9791781435       16.4544483820
  H         2.7247013909       -2.8626634478       15.9142081639
  H         2.4525352045       -1.0864456181       15.5276295824
  H        18.8962285830        2.5100106758       24.2685142565
  H        18.5630646515        2.8287725019       22.6537414234
  H        19.4173388543        1.3939325033       22.9013464573
  C        12.6808470820        7.4097328968       10.3600208987
  N        12.4188924983        8.7554317516       10.2448465649
  O        11.2218455634       10.2750837465       11.4556490589
  S        13.3839246257        6.6282634666        9.0212268985
  C        12.4187854768        9.4547705984        8.9779246529
  H        12.6573451512       10.5655827811        9.1064748717
  H        13.1571357009        9.0859913660        8.3674968152
  C        11.0942276495        9.2965388618        8.2200305129
  H        10.1648947883        9.0587636570        8.8075382120
  H        10.8821645653       10.2498205698        7.6990124272
  H        11.0656979747        8.5415035393        7.4701981805
  H        21.5372793335        8.8119777682        3.5375836955
  C        22.4257668941        9.4604978640        3.3331151784
  H        23.2677479877        8.7644089881        3.1571460464
  C        22.5607814515       10.4149868878        4.4641407606
  C        22.1550184953       10.1609759895        2.0219935198
  C        21.3065013913       10.6149679321        5.3989564581
  H        23.2742661510       10.0605023046        5.1153928104
  H        22.8656444073       11.4123653573        4.1492414824
  H        23.0354994733       10.7441014456        1.6049078603
  H        21.3623155550       10.8948885135        1.9702588330
  H        22.0035862178        9.4621077071        1.2034046327
  C        20.9117491731        9.3346921082        6.1096711813
  H        21.4870291478       11.5130450714        6.0640299702
  H        20.4305917865       10.9110335536        4.7684658943
  C        20.2699445252        9.5281292511        7.4613542094
  H        21.9244586385        8.9030857155        6.3244029438
  H        20.2756761623        8.8182378067        5.4048775409
  C        19.0205515873       10.3434800600        7.4493504386
  H        21.0019482120       10.0954822943        8.0117537049
  H        19.9877070990        8.5524280556        7.9156537023
  C        17.6892808435        9.6544938421        6.8894065674
  H        19.0121894998       10.7962656664        8.4451062618
  H        19.3147244222       11.1265714547        6.8507146469
  C        16.4455947063       10.5812609074        6.9100368460
  H        17.5043393783        8.7466531409        7.4063491802
  H        17.9315827372        9.3854114975        5.8614258881
  C        16.8279302595       11.8998301935        6.2692768729
  C        16.1570729354       11.2745108853        8.2074315953
  C        15.2598218793        9.9897015216        6.1293054970
  C        16.7927548022       13.0188876370        7.1522680881
  C        17.3826989669       12.2430976921        5.0213732361
  C        16.2877656344       12.6338856565        8.3738753703
  C        15.5853004583       10.6112039606        9.3323237115
  H        15.5539336320        9.4490063100        5.2087796746
  H        14.9086612104        9.1200181439        6.6277239677
  C        14.0836095908       10.9779127765        5.7228502204
  S        17.3287015054       14.4238664054        6.4277003520
  C        17.7078620369       13.5459390380        4.9715896182
  H        17.7348905015       11.4598246274        4.2744969940
  C        16.0221166262       13.2584285263        9.5492380228
  H        15.4943310434        9.5701474032        9.4081555028
  C        15.3079937160       11.2893339929       10.5302333072
  H        14.5033945184       11.8313456955        5.1530372351
  H        13.6576047504       11.4279997237        6.6177608886
  C        13.0763759048       10.2266232341        4.8605314156
  C        18.1661437878       14.2194732746        3.7314304531
  C        15.4919020736       12.6029234907       10.6766857160
  H        16.1067716320       14.2948425895        9.7533252353
  C        15.0491781281       10.9336884554       11.8552626891
  H        12.0271112392       10.5932841625        4.9878004018
  H        13.1154254392        9.1805368244        5.1471982730
  C        13.3180455158       10.3073792430        3.3684809491
  C        18.1450273572       15.5872824037        3.4683669003
  C        18.5736703117       13.3946602773        2.6002967389
  C        15.1462898245       13.3279254304       11.9129172202
  C        14.8526105560       12.0179614902       12.6783061869
  S        14.8339464341        9.4193074782       12.5916633175
  H        14.3257251792       10.0464389740        3.0715557776
  H        13.2345701417       11.4061944184        2.9947006687
  C        12.2003564557        9.5289244944        2.5881872660
  N        17.6781766938       16.6004890992        4.3594776117
  C        18.3403696785       16.0976204903        2.1911739119
  C        18.9604461848       13.9501272830        1.3663859029
  H        18.7360124039       12.3699599973        2.6952790255
  C        13.8366015314       14.2442245960       11.7272508325
  C        16.3551590494       14.1615205665       12.5413712841
  C        14.4229919684       11.6154350946       13.9828131365
  C        14.4079492718       10.2420588292       14.1318082101
  H        11.6333400531        8.8846315229        3.3067221197
  H        11.5313500140       10.2172678026        2.1033854202
  C        12.8580179235        8.7169024693        1.4740209932
  S        17.7702581090       18.0673544819        3.6839032855
  N        18.1471208200       17.4690561804        2.2102861660
  C        18.6658169928       15.3704655675        1.0362599821
  H        19.3962088059       13.3840788897        0.6131067611
  H        13.9005585336       15.0902450202       11.0320227703
  H        13.6611953860       14.7278659814       12.7454723058
  C        12.5975850717       13.4904032872       11.3894223919
  H        16.8735468134       14.8681512697       11.8615709250
  H        15.9302870579       14.7709690834       13.3365792476
  C        17.4385827227       13.2209789481       13.0602034102
  H        14.3016057997       12.3618519248       14.7447610702
  C        14.2016295635        9.4975520022       15.4046948985
  H        12.1461612539        8.0631465827        0.9537406859
  H        13.6836625056        8.1561015731        1.9664278896
  C        13.4768400631        9.5881114539        0.3691481624
  C        18.9227623942       16.0450334870       -0.1737951401
  H        12.6812845555       12.9754991695       10.4654410388
  H        12.4776722263       12.6466014615       12.1302019537
  C        11.2127108313       14.3015178059       11.1165601976
  H        17.7322719895       12.4298262496       12.2887248514
  H        17.1919730376       12.5714709100       13.9468310909
  C        18.5871063990       14.1331109815       13.5815687287
  C        14.2577121845        8.0920052678       15.4802984204
  C        13.8591457319       10.1513476551       16.6870579347
  H        13.4558467061       10.6773135416        0.6175982747
  H        14.5561301182        9.4286081946        0.3148641630
  C        12.7477707354        9.3364741593       -1.0170178092
  H        18.7886423989       17.1352004832       -0.0676575468
  C        19.2851477245       15.6599030793       -1.4829040437
  H        11.1969415615       14.9057858411       10.1816763351
  H        11.0078200706       14.9327095501       11.9793448329
  C        10.1561758523       13.1518406016       10.8229588409
  H        18.8492949878       14.8244647370       12.7834265726
  H        18.1954370629       14.7218863691       14.3693438354
  C        19.8702207371       13.4407847296       14.2080969351
  N        14.4216977827        7.2084577376       14.4516833805
  C        13.9294410784        7.3897158864       16.6321652376
  C        13.6451213032        9.4168910930       17.8485493454
  H        13.5465767057       11.1775782639       16.7448045200
  H        13.2667354872        9.9778215121       -1.7814420806
  H        11.6657967442        9.5190496723       -0.9647598437
  H        12.9195240440        8.3051525372       -1.4000595626
  S        19.6162680118       14.0216091821       -1.9910835647
  C        19.5128420507       16.6228008625       -2.5653986944
  H        10.6227969031       12.5606484937       10.0337463016
  H        10.0551693432       12.5671730163       11.7155927895
  C         8.8035831940       13.7143270472       10.4033448659
  H        20.4198488498       13.0586041741       13.3434076297
  H        19.6471923408       12.5848733146       14.8082332093
  C        20.7685265633       14.4141669241       14.9691517130
  S        14.6436277553        5.7175329355       15.0674911175
  N        13.9803403572        6.0142837359       16.5125689526
  C        13.5635513914        7.9890049089       17.8670714606
  H        13.4208806957        9.9908831437       18.7223839762
  C        19.9889602590       14.7249195830       -3.6324180936
  N        19.8456411496       16.0779638474       -3.7112643938
  O        19.3949772612       17.8216838896       -2.3211917457
  H         8.1383178729       13.5533105559       11.2303365693
  H         9.0108690083       14.7523543661       10.2470229739
  C         8.3116155777       13.1603250467        9.1289709088
  H        20.2355996510       14.9520204016       15.7838878747
  H        21.6743988711       13.9239185353       15.3370502098
  C        21.2075817301       15.5424961757       14.0244530451
  C        13.2079501620        7.1370328709       19.0210620400
  S        20.5118501544       13.6667259568       -5.0031279007
  C        19.9474670582       16.8429852353       -4.9512642091
  H         9.0789918203       12.9508105217        8.4341388494
  H         7.9537906719       12.1697585734        9.4711090366
  C         7.1031216245       13.8992239516        8.4498803243
  H        20.5561636068       16.3408623649       13.8699521087
  H        21.3855295992       15.1288738390       12.9932224704
  C        22.6316649514       16.0698240990       14.3153454273
  H        13.3845112097        6.0093318309       18.9110751575
  C        12.7851851651        7.4130540931       20.3067671855
  H        20.7341992725       16.5378033947       -5.5905146730
  H        20.2467396593       17.8970399348       -4.8033297087
  C        18.5410976921       16.8505303227       -5.5541854192
  H         6.6741549868       13.2847555433        7.6642648595
  H         7.4693709076       14.7972696082        8.0111201718
  C         5.9816089231       14.1204785511        9.2842589306
  H        23.1933421108       15.2566913188       14.7848468089
  H        23.1746885634       16.4370724417       13.4325736246
  C        22.4037397619       17.2639638297       15.3092213847
  S        12.3335372298        9.0083725978       20.9142929724
  C        12.6362147787        6.3084968251       21.2609795295
  H        17.7205643845       17.1055083415       -4.9148464132
  H        18.1830465840       15.8491913977       -5.7686076069
  H        18.4819345309       17.4955019701       -6.4706295399
  H         5.4467265700       13.1897656388        9.5629802116
  H         6.2259926677       14.7352496007       10.1565569860
  H         5.2381733102       14.6886013442        8.6740995065
  H        22.1832166977       16.8481030791       16.2708934807
  H        23.2636838295       18.0009205181       15.4908951455
  H        21.5718260452       17.8063282377       15.0414957390
  C        12.0380597091        8.1398528091       22.4228530356
  N        12.1392245809        6.8268945154       22.3713037905
  O        12.9410038158        5.1043990484       21.0676589975
  S        11.3126982725        8.8256343804       23.8598993630
  C        12.1223095488        6.0119697853       23.5705423089
  H        12.1088983151        4.9573376203       23.3590998106
  H        11.2370114365        6.1902695123       24.1092208644
  C        13.4719430176        6.1488397757       24.2981198789
  H        14.3775274941        6.1132014434       23.6077787985
  H        13.6264209002        5.4399965161       25.1010299993
  H        13.4693006803        7.1359662996       24.7675608398
