352
 i =    69000, time =    69000.000, E =        25.2867388125
  H        12.5466686212        4.8973834376       32.3526650534
  C        11.4492443807        5.0559908120       32.1737252473
  H        10.8729807445        4.1272231345       31.9854256213
  C        11.3998548609        5.9076501352       30.8959418145
  C        10.6666483723        5.8109538566       33.2287299343
  C        12.4168127895        5.5580473965       29.8231643115
  H        10.4005374437        5.8053603438       30.5000465894
  H        11.4218021255        6.9399669658       31.0983188578
  H        10.4975177823        5.2045503499       34.1514460747
  H        11.0286147422        6.8269771703       33.3870593969
  H         9.7290497986        5.9892518867       32.7762456359
  C        11.9141556401        4.6445089440       28.7202669642
  H        13.4011580482        5.3232562978       30.2486048997
  H        12.5682172283        6.4253607169       29.3616133596
  C        11.1564548153        5.4343129642       27.7270675047
  H        12.7357891518        4.1856209863       28.2558381791
  H        11.4656035934        3.7261659586       29.0640530288
  C        10.2306213600        4.5851880276       26.6948032231
  H        11.8837134445        5.9396502140       27.0770976326
  H        10.6001472675        6.2385776897       28.1932012146
  C         9.0180288128        5.3594977964       26.1248249368
  H        10.8316847419        3.9712979481       25.9344736579
  H         9.7426486220        3.7846907560       27.2958776503
  C         7.7990581629        4.6279403403       25.4438753433
  H         8.6829232715        5.9240694913       26.9615374652
  H         9.4912437014        6.1135057967       25.4306417004
  C         7.4204682698        3.2955857663       26.0786688000
  C         8.1845287597        3.9370544468       24.2003433648
  C         6.6551026726        5.4961588580       24.9992741250
  C         7.6752188186        2.1486980140       25.2243801610
  C         6.9874882567        2.8606280019       27.3802293940
  C         8.1992023290        2.6112619617       24.0311749155
  C         8.5552117643        4.6702921124       23.0639700499
  H         6.1579195354        4.9263794516       24.1660113391
  H         6.9772591659        6.3549050181       24.5178108724
  C         5.7127068993        5.9378536110       26.1333015566
  S         7.3618417231        0.6328822884       26.0886903383
  C         6.8526219098        1.5022070685       27.5165067728
  H         6.9271567147        3.5480319873       28.2079291333
  C         8.5645612554        2.0275619796       22.8640556258
  H         8.6462903694        5.7399591256       23.1525390701
  C         8.9279108023        4.0911390867       21.9088900707
  H         5.4599639446        5.2918922264       27.0044926554
  H         6.2158992079        6.8304895638       26.5278762142
  C         4.2901446838        6.3165353317       25.5681029289
  C         6.2647506633        0.9485566905       28.7605538547
  C         8.9026627976        2.7114531969       21.7484932654
  H         8.5525344349        0.9122238904       22.8074511809
  C         9.3504298102        4.5474116756       20.7040230807
  H         3.9763760338        5.6922888799       24.8007038911
  H         4.2843500410        7.3287167864       25.1650790452
  C         3.1913300840        6.2555124003       26.5944900632
  C         6.4568920667       -0.3376030304       29.2392002120
  C         5.5893120401        1.8644324408       29.7234810256
  C         9.3423824742        2.0020748350       20.5738896250
  C         9.6309826504        3.4092834800       19.9440954813
  S         9.7439775241        6.0530000143       19.9828767032
  H         2.3995450811        6.7693267885       26.1391451816
  H         3.5177757660        6.7795431943       27.4895184799
  C         2.8054290778        4.8337291018       26.9331538285
  N         7.1115934571       -1.3636123450       28.5544636423
  C         6.1362889787       -0.7395330449       30.5415449129
  C         5.3282929184        1.5158443375       31.0486640604
  H         5.2869147824        2.8729144431       29.4152416524
  C         8.2774655428        1.2439391945       19.7759900630
  C        10.6254132458        1.1563865782       20.7064974756
  C        10.1874901437        3.8346782501       18.6822616861
  C        10.1877902936        5.1912525876       18.5339094874
  H         2.1817656330        4.3421741523       26.1593443249
  H         3.6682502945        4.1920212988       27.0785262009
  C         1.9744699364        4.8085789712       28.3067625492
  S         7.0922830268       -2.7457653229       29.3931391083
  N         6.3945873691       -2.1325582905       30.7229857166
  C         5.4766175169        0.1387109884       31.4525858547
  H         4.9195962459        2.2045152807       31.8188918115
  H         7.8598763096        0.4680568367       20.4224230089
  H         8.6739845504        0.7357194659       18.8868224437
  C         7.1098563258        2.1778365383       19.3545438938
  H        10.7545217549        0.6272723674       19.7976079580
  H        10.4049646931        0.3893757011       21.4401021761
  C        11.9122131474        1.8799716324       21.1718705071
  H        10.5649814295        3.0282899027       17.9999233431
  C        10.4208180614        5.9127936879       17.2229254281
  H         1.3113093718        3.9649203263       28.4674642888
  H         1.4827479112        5.7845453394       28.2990844678
  C         2.8839827167        4.8603406005       29.4866523667
  C         5.1119323451       -0.4371775893       32.6944569568
  H         7.3870122008        2.4728263083       18.3246027167
  H         7.1050921278        3.0983690782       19.9439712203
  C         5.6771931522        1.6317712473       19.2872547925
  H        11.7778439383        2.7419965783       21.8050713024
  H        12.3471806766        2.3144223581       20.2945483214
  C        13.0257628647        1.0348776564       21.9006144800
  C        10.4958669181        7.3413254703       17.1419927618
  C        10.6689675162        5.1261895685       15.9661551489
  H         3.3261715215        3.8337178070       29.4788982271
  H         3.6567954086        5.5881537982       29.5260368542
  C         2.0296111235        4.9944629782       30.7504882125
  H         5.1208856069       -1.5046893448       32.7266890966
  C         4.8978720676       -0.0131073909       33.9990559054
  H         5.1264949350        2.5271406440       19.4284250014
  H         5.4080704003        0.9911677629       20.1315248671
  C         5.3114650994        0.9620382747       17.9999002512
  H        12.5702646112        0.5121559382       22.7857887334
  H        13.3695492323        0.2374033610       21.2518554974
  C        14.1001541537        2.0085586916       22.3136245208
  N        10.2265615778        8.2667586968       18.1811607361
  C        10.8499015684        7.9856800081       15.9707233473
  C        10.8260672312        5.8481228737       14.7647646294
  H        10.6627164649        4.0488360639       15.8838319455
  H         1.7847024348        6.1002937985       30.9443984155
  H         1.0759420279        4.5099830285       30.6180325566
  H         2.5158418230        4.4653795645       31.5446838940
  S         4.7923187998        1.6356536260       34.4935256841
  C         4.7834099657       -1.0488105164       35.0597647331
  H         5.6990800296        1.5912682968       17.1562251362
  H         5.8597591690        0.0296187892       17.9466484237
  C         3.8259918995        0.5095485908       17.9609303080
  H        13.8016709838        2.7543275493       23.0674725225
  H        14.3155636508        2.7079234391       21.4929969399
  C        15.3565256152        1.3082155514       22.7688183900
  S        10.4000929649        9.7761231491       17.6588203501
  N        10.9888655415        9.3777702657       16.1436611898
  C        11.0458496197        7.2932691259       14.7517414633
  H        10.9033695535        5.3243953478       13.7986000861
  C         4.4295502975        0.9097655610       36.1048408887
  N         4.5523920615       -0.4270095439       36.2426438504
  O         4.7953573592       -2.2705574098       34.8874653850
  H         3.5549550380        0.4422145648       16.9261850350
  H         3.1497482454        1.2672608965       18.4013257968
  C         3.5759076107       -0.8006615672       18.7593618582
  H        15.0942357344        0.5676947492       23.5163053438
  H        15.9253352544        0.8711220290       21.9157358174
  C        16.2737261081        2.3217174303       23.4026850567
  C        11.3600566807        8.0816432366       13.6375117748
  S         4.0741409355        1.8021734504       37.6050765828
  C         4.5550875051       -1.1125461311       37.4996480214
  H         4.2783084685       -0.8304868601       19.5515853508
  H         2.5843617547       -0.7255474911       19.1828196422
  C         3.9176462640       -2.0899233912       17.9492740840
  H        15.6626418561        2.8016925292       24.1920426799
  H        16.4227400923        3.1252588857       22.7139523342
  C        17.6037879271        1.8349692714       24.0044323802
  H        11.0027009021        9.1408158230       13.8222340821
  C        11.6925542122        7.8024400621       12.2906533705
  H         4.3894791865       -0.5385559848       38.3600507567
  H         3.7998010852       -1.8994536879       37.5717140188
  C         5.9330274705       -1.8858431295       37.7453099767
  H         4.1439435890       -2.8955169244       18.6855967418
  H         4.6740902510       -1.9418761946       17.1942722632
  C         2.6177948272       -2.7180280632       17.2897703447
  H        17.8364252961        2.2811645097       25.0165714763
  H        17.5218596243        0.7815779492       24.1831845663
  C        18.7354124035        2.0592781421       22.9461261334
  S        11.9526037662        6.2839868736       11.5310920572
  C        11.7921832991        8.9903935193       11.4101867640
  H         6.1877850566       -2.6384892923       37.0073271215
  H         6.8304536351       -1.2250972406       37.6853036608
  H         5.8655709687       -2.4534141823       38.6462036656
  H         2.6881448604       -2.3838633434       16.2587227324
  H         1.8435531050       -2.1523132527       17.7464432012
  H         2.6270633309       -3.7934279121       17.2206099761
  H        18.7686766894        3.1324920104       22.6799042016
  H        18.4601144959        1.6916184991       21.9305869501
  H        19.7466518325        1.7182927506       23.2479225495
  C        12.2170954238        7.1910108009       10.0247070562
  N        12.1255742864        8.5626164158       10.1544113973
  O        11.6889582759       10.1601058600       11.7193551450
  S        12.6972601826        6.6314848975        8.3948196512
  C        12.2925956691        9.4181636846        8.9784750138
  H        12.6368045753       10.4305846870        9.3330521354
  H        13.0652044516        9.1042708013        8.2801675300
  C        10.8787825569        9.6426808954        8.2891025559
  H        10.0901924319        9.7034977661        9.0577946699
  H        10.8918650447       10.6276586855        7.6539808026
  H        10.6974219475        8.6526120962        7.7202927878
  H        22.3131938043        8.5401795351        3.8767989792
  C        22.5144415591        9.6104885412        4.0195407927
  H        23.2794159149        9.8373356508        3.3536164081
  C        23.1864312386        9.6599758668        5.3549837894
  C        21.3122009701       10.4508039926        3.7233227947
  C        22.2313014409        9.6380228634        6.5571215119
  H        23.8578928526        8.7708758334        5.4579648582
  H        23.7688621639       10.6060684116        5.4250430604
  H        21.5206111752       11.4298258090        3.9922013170
  H        20.3924557065       10.0561484097        4.2332040949
  H        20.8888056100       10.5364016276        2.7749370983
  C        21.2335480815        8.4939525130        6.7128084897
  H        22.8347446775        9.6952254447        7.4767846071
  H        21.7042085163       10.6254119689        6.4616242345
  C        20.2252563825        8.7956598310        7.8191454309
  H        21.7598304339        7.6418081073        7.1848664230
  H        20.7515063613        8.0402062516        5.8779087789
  C        19.1515900723        9.8007290359        7.5829532501
  H        20.7890955037        8.9849054638        8.7146127171
  H        19.6632203728        7.8480423151        8.0389084819
  C        17.7981963999        9.2920789048        7.1748667589
  H        18.9383605266       10.1737515791        8.5451933943
  H        19.4857791803       10.6654110064        7.0186764699
  C        16.7263431380       10.3741882155        7.1362136807
  H        17.4492056982        8.5445839304        7.7918145556
  H        17.9684651714        8.8673538215        6.1770916550
  C        17.1859466783       11.6591789430        6.4010058503
  C        16.4594803824       11.0973204122        8.3904685966
  C        15.4572627836        9.7647917788        6.4277234639
  C        17.0845320725       12.7925961626        7.2358728661
  C        17.6430715530       12.0040962576        5.1414999584
  C        16.6584157251       12.4268823211        8.5497436064
  C        15.9555462882       10.3993295673        9.4767316399
  H        15.7175643087        9.6414971407        5.3750536289
  H        15.2279509048        8.8017451074        6.8103920087
  C        14.1957932404       10.7071276148        6.3509779489
  S        17.4873043928       14.2423134897        6.5051995967
  C        17.9402735781       13.3744755978        5.0627859273
  H        17.7421707778       11.2014844560        4.3413739332
  C        16.3154057870       13.0700737353        9.6896937892
  H        15.8245148279        9.3265462402        9.3658216118
  C        15.7349817234       10.9867684980       10.6746104601
  H        14.4206164700       11.7064334798        6.0184596860
  H        13.8247172192       10.9225631622        7.2978256901
  C        13.0265647937       10.2504240581        5.3958173869
  C        18.3775337617       13.9952844374        3.7516873870
  C        15.8367247256       12.3437910986       10.8286906219
  H        16.4153866624       14.1736656234        9.7691308302
  C        15.2571164779       10.6391174628       11.8781264374
  H        12.1465119869       10.9770729896        5.5310435717
  H        12.6584157540        9.2905618894        5.6512444678
  C        13.4572078905       10.1544457933        3.9428567747
  C        18.4107693000       15.3611082062        3.4989912157
  C        18.8402578776       13.1706508130        2.5201223787
  C        15.3980346962       13.0183740242       12.1233270749
  C        15.1642776655       11.6740385412       12.7919689569
  S        15.0735658328        9.0966814239       12.6342093125
  H        14.2932484444        9.4590744648        3.8136478928
  H        13.8457363494       11.2187861896        3.7432187010
  C        12.2923214916        9.7213413348        3.0082548003
  N        17.9898490098       16.3465251420        4.3898622022
  C        18.6887878994       15.9781949454        2.2392694204
  C        19.2114242522       13.7103631282        1.2631854759
  H        19.0206571918       12.1095346439        2.5900828786
  C        14.1282674532       13.8744156330       11.9883768335
  C        16.4942328095       13.7725324279       12.8240607035
  C        14.9394053504       11.2356736569       14.0753156373
  C        14.7606323852        9.8917549825       14.2077113909
  H        11.6135916117        8.9821068789        3.5227335499
  H        11.6084255946       10.4647787007        2.6436900530
  C        12.9052886746        8.9387041944        1.9403796186
  S        18.0580007381       17.8250477802        3.7546786871
  N        18.6177458911       17.4045237928        2.2643531772
  C        19.0963440295       15.2221922482        1.0960689936
  H        19.5859069402       13.0482565555        0.4710352451
  H        14.3935584833       14.5990700828       11.2686653165
  H        13.8603994343       14.3680997785       12.8984900724
  C        12.9413618345       13.2011633727       11.3965568231
  H        16.7137536625       14.5716384108       12.1556291134
  H        16.1487363781       14.0487403251       13.7902281208
  C        17.7467732948       12.9131468796       12.9852454961
  H        14.8310321417       11.9335387472       14.9035986954
  C        14.5215612027        9.0476413614       15.4560939395
  H        12.0604543960        8.3256859378        1.5947790915
  H        13.7219905527        8.2989147137        2.2482304470
  C        13.2611041336        9.7900685800        0.8101983094
  C        19.1804294513       15.9472814898       -0.1083599379
  H        13.2323538303       12.6362650490       10.4911043882
  H        12.5657981375       12.5164074031       12.1288899360
  C        11.7298145590       14.1810071389       11.0814863349
  H        18.1857811550       12.5496827747       12.0217847670
  H        17.4891397902       12.0571317111       13.5859184589
  C        18.7686199115       13.7322193781       13.8580992719
  C        14.2672903720        7.6404722558       15.5778048889
  C        14.4016142555        9.7808743978       16.7665224216
  H        13.6917584041       10.6899567119        1.2518740435
  H        13.9343205414        9.1917482707        0.1597869372
  C        12.0996488261       10.1417483101       -0.1473200310
  H        18.9467797765       16.9966863437       -0.0269269915
  C        19.4718444444       15.6279836690       -1.4127664517
  H        11.9864478879       14.8822211054       10.2318082837
  H        11.6209470675       14.7370993217       11.9982886856
  C        10.4854227773       13.3762651060       10.8715085769
  H        19.0223812273       14.6335056537       13.2729894475
  H        18.3031253698       14.0274969163       14.7751850159
  C        20.0261523627       12.9354425961       14.0563672009
  N        14.4303902066        6.7302765406       14.5227802244
  C        13.9604712358        7.0011720742       16.7077515433
  C        14.0359095701        9.1049891768       17.9206975185
  H        14.7528649333       10.7572996510       16.8174784706
  H        11.1904128673       10.5371615128        0.4034195020
  H        11.7816802289        9.1853798762       -0.5862961246
  H        12.4318433853       10.8672021867       -0.8388333630
  S        19.6481861223       14.0286779128       -2.1680103705
  C        19.5216279578       16.7869349583       -2.3314510599
  H        10.8343151732       12.5869726174       10.1331920948
  H        10.1891028981       12.8077536739       11.8062914913
  C         9.2631134534       14.1794804530       10.2557654036
  H        20.4913880573       12.6718265895       13.0745770551
  H        19.7505591198       11.9754404957       14.5233654137
  C        21.0683444540       13.6994436316       14.9061197219
  S        14.3136884356        5.2242295029       15.1244018150
  N        13.8178313433        5.6191782491       16.5780553685
  C        13.8250274693        7.6502976657       17.9570148018
  H        13.9562658969        9.6843517055       18.7759577513
  C        19.7511527272       14.9574623657       -3.6784784342
  N        19.6740161952       16.3099546135       -3.5936775018
  O        19.2009365815       17.9336342465       -2.0596389210
  H         8.7104165597       14.5888868711       11.0405686950
  H         9.4765785783       14.9359266325        9.5019789881
  C         8.3470086805       13.1731966481        9.5902180820
  H        20.6796903071       13.8772082218       15.8508555431
  H        21.9116941678       13.0537868514       15.1527360290
  C        21.4930548329       15.0439603482       14.4038141630
  C        13.5374901427        6.8511371285       19.1655947090
  S        20.1471359537       14.2389938779       -5.1959227970
  C        19.6513935999       17.0977615174       -4.7898344856
  H         8.9016781705       12.6681905080        8.7411335504
  H         8.1127400337       12.3748805307       10.2394949332
  C         7.0778205482       13.8090876815        8.9930332451
  H        20.7131101408       15.5142752058       13.8272439323
  H        22.1944239942       14.9294388923       13.5481640123
  C        22.0951727519       16.0271977791       15.4093927028
  H        13.9322471926        5.8257870074       19.1312790198
  C        12.9734064269        7.2295354200       20.3587428331
  H        20.4700905234       17.0336247754       -5.4679994585
  H        19.8982999418       18.0472002637       -4.4641069086
  C        18.2522717387       17.1625377201       -5.5195138404
  H         6.8109131261       13.2973300436        8.0840406674
  H         7.3799852411       14.8371139495        8.6916451386
  C         5.8633619232       13.7873917443        9.8426058070
  H        21.5666833482       15.9517839161       16.4002498161
  H        23.1815687067       16.1075477476       15.6371323633
  C        21.7638801387       17.4074447090       14.9160558760
  S        12.4218940778        8.8133940904       20.7770236673
  C        12.7808356581        6.2435637159       21.4342265685
  H        18.3979351008       16.7899877711       -6.5224805134
  H        17.9403752313       18.1957519289       -5.5632570360
  H        17.4954901608       16.5284362782       -5.0867456531
  H         5.4507241416       12.7814403054        9.9694551160
  H         6.0509310703       14.2211665711       10.8474287966
  H         4.9768031876       14.2975025793        9.4326279701
  H        22.4551373025       18.1091243520       15.3531775808
  H        21.8132377636       17.3445334277       13.7974010325
  H        20.7959128176       17.7178862628       15.1626538020
  C        12.1451723774        8.1811679986       22.3765625045
  N        12.3615514017        6.8716490978       22.5732110369
  O        12.9648810284        4.9943825913       21.2501788027
  S        11.5163708600        9.1467578073       23.6557947334
  C        12.2422490055        6.2976408707       23.8871922419
  H        12.2169596494        5.2007817147       23.6365581890
  H        11.2943279865        6.4559988818       24.4026463473
  C        13.4908124688        6.5748078708       24.7699698988
  H        13.6732317781        5.7025306040       25.3481463494
  H        13.3351207277        7.4245133854       25.3829268381
  H        14.3681893367        6.8211086419       24.1371304224
