352
 i =    35800, time =    35800.000, E =        24.8529759011
  H        11.7220056861        6.7907849840       32.2022918037
  C        11.4475082209        5.7328739123       32.2940317716
  H        12.3314795794        5.1659736564       32.1258103242
  C        10.5180565144        5.5789414373       31.1225130470
  C        10.8805235360        5.3140709907       33.6314741788
  C        11.2556007886        5.5450452934       29.7711036903
  H        10.0517150035        4.6210250894       31.2284410190
  H         9.7946935993        6.3360382105       31.1229312839
  H        10.3652318065        6.1252749430       34.1015860681
  H        10.1119083106        4.5627319631       33.4850438014
  H        11.5576636603        5.0078580167       34.3804851076
  C        10.2035727147        5.4138694450       28.6583049703
  H        11.9552186187        4.7550330986       29.7616052429
  H        11.7477140150        6.5090328380       29.6998266292
  C        10.6853369203        5.2940339437       27.2736763338
  H         9.7779183365        4.4353447955       29.0424709385
  H         9.5651868606        6.2654967065       28.7323425232
  C         9.6538391078        4.7745805976       26.3735411071
  H        11.6008153036        4.6141776763       27.2882023997
  H        11.1032514047        6.2178900321       26.8313507723
  C         8.5131533075        5.7366032029       26.0764477823
  H        10.0841318777        4.4071792197       25.4347410435
  H         9.4223257509        3.8665020229       26.9022009160
  C         7.3849551262        4.9999582700       25.3686657060
  H         8.2210162534        6.0913154530       27.0585281613
  H         8.8364093162        6.5898487976       25.4756215032
  C         6.9464558363        3.6820548791       26.0279610578
  C         7.8357607405        4.2082724571       24.1617536288
  C         6.2565383679        5.9955644918       25.1323763860
  C         7.1723172452        2.5687219785       25.2595904252
  C         6.3698876333        3.3325045054       27.2947550524
  C         7.7181710453        2.8904143736       24.0436696220
  C         8.3551220490        4.8604868566       23.0804163911
  H         6.4799937093        6.7013484698       24.2842291591
  H         6.1353938137        6.4908790873       26.1108976101
  C         4.9237214977        5.2243158073       24.8085908090
  S         6.8526411874        1.0552093484       26.0995350936
  C         6.2924707056        1.9430380246       27.4365477193
  H         6.1468024957        4.2031799986       27.8877336521
  C         8.1426839904        2.2496458822       22.8959778434
  H         8.4414695968        5.9698419821       23.0450381671
  C         8.6733972879        4.2267338239       21.8695481852
  H         5.1761440686        4.6720902241       23.8697664365
  H         4.7406931500        4.5426506106       25.6079823922
  C         3.6244122819        6.0537972777       24.7034903596
  C         5.7719636371        1.3136803228       28.6818119237
  C         8.6152921076        2.9233705682       21.7281923887
  H         7.9918663219        1.1473581100       22.8257595389
  C         9.0819195342        4.6332803146       20.6433655225
  H         3.0449635512        5.5826246004       23.9021084676
  H         3.7720322013        7.1256974724       24.4584818136
  C         2.8064181287        6.0383458207       25.9656102441
  C         5.7186304247       -0.0553425697       28.9846620675
  C         5.2908205062        2.1908542777       29.7749338705
  C         9.0261892627        2.2175888585       20.4788690646
  C         9.2389091060        3.5367468939       19.7870630282
  S         9.3811061535        6.1528718918       19.9678915340
  H         2.1358229942        6.8849992663       25.8726338197
  H         3.5324587011        6.2219685084       26.7175431578
  C         2.2881666450        4.6594091427       26.4557226878
  N         6.1140118003       -1.0486805496       28.0452821431
  C         5.4323290004       -0.5994360825       30.2404683322
  C         5.0851171853        1.6603322754       31.0875524357
  H         5.2297978261        3.3113929173       29.6030820480
  C         7.9236267484        1.4258921640       19.8345620319
  C        10.2746653590        1.3403653450       20.6098649307
  C         9.4812319657        4.0488375400       18.4534084102
  C         9.6152139208        5.4212126139       18.3730474250
  H         1.8656705426        4.1190137252       25.6128097491
  H         3.1272321199        4.1732177987       26.9103636611
  C         1.2415318122        4.7742281891       27.5669247930
  S         6.0618704461       -2.5193544351       28.7498006441
  N         5.4721432199       -2.0118794106       30.1996050387
  C         5.1755057122        0.2224573535       31.3781542809
  H         4.9314243555        2.3319497574       31.9123210196
  H         7.7266110051        0.5720244920       20.5150197146
  H         8.2894210766        1.0092991495       18.8796310374
  C         6.5797836467        2.1064721773       19.6270344007
  H        10.4253235527        0.8406351527       19.6800109248
  H        10.1703572559        0.6479010183       21.4314100328
  C        11.5245355810        2.2112802945       20.9791360641
  H         9.6157560287        3.2834920750       17.7156769018
  C         9.9591748515        6.2273421219       17.1668296817
  H         1.0347952469        3.7541473212       27.9893150638
  H         0.3202625787        5.1638696215       27.2069136250
  C         1.6568939319        5.7611366490       28.6828922572
  C         5.0631606427       -0.4405833880       32.6580654559
  H         6.6896341284        3.1404361538       19.4608373689
  H         5.8644534321        2.0157704862       20.4349872115
  C         5.9707215330        1.4577476986       18.3062667305
  H        11.3712295102        2.6329547042       21.9895814291
  H        11.7013637854        3.0780093897       20.3484634261
  C        12.7678970340        1.2505253067       20.9954317788
  C        10.0322826030        7.6818981667       17.1628103255
  C        10.1630284005        5.6063060788       15.8447852638
  H         2.0948201684        6.6767088539       28.2035032238
  H         0.6940990664        6.1892717539       29.1168384531
  C         2.5005114214        5.1013399359       29.8148425967
  H         5.0512206095       -1.5333066615       32.5307590673
  C         4.6722149116       -0.0231953802       33.8566849498
  H         5.9932542459        0.3740526748       18.4136458860
  H         6.5877475377        1.7204059933       17.4549767712
  C         4.6524932793        2.0844255107       18.0723092598
  H        12.5511169242        0.5098473652       21.7762391840
  H        12.8883265710        0.6912342806       19.9722344567
  C        14.0392074259        2.0129450542       21.2056660319
  N         9.6930218151        8.5280631233       18.2350735271
  C        10.3980674021        8.3882857216       16.0238645249
  C        10.4732784297        6.3261161791       14.7463722916
  H        10.1315322245        4.5206746483       15.8823454127
  H         2.5785263686        5.7586127468       30.6669093009
  H         2.0451153033        4.2358506904       30.1382225350
  H         3.5350709011        4.9006828603       29.6444684047
  S         4.3361562104        1.5741810010       34.3327602439
  C         4.4229181038       -1.0824916607       34.8536511465
  H         4.6784236947        3.0106903142       18.6070551110
  H         4.5102735901        2.4236724276       17.0719405370
  C         3.3956653263        1.2768659221       18.5493512122
  H        14.1282064990        2.7899833592       20.5151371505
  H        14.8591544481        1.4318108114       20.8179800243
  C        14.3651362283        2.5339794354       22.5927473123
  S         9.6151502434       10.0313100547       17.6789655272
  N        10.3294400897        9.7422279900       16.2829028597
  C        10.7732934269        7.7543074413       14.8218730136
  H        10.6283093534        5.8047782787       13.8932648806
  C         3.9653734894        0.8463817366       35.9307236732
  N         4.0892293461       -0.5261945570       36.0266927631
  O         4.5435145037       -2.3218338548       34.7064069009
  H         2.7099054286        2.0707490229       18.7744680476
  H         3.5233362793        0.8527805195       19.5024610987
  C         2.8625027578        0.2381688679       17.6734011880
  H        14.9519160969        3.4041195263       22.5827344515
  H        13.4533694487        2.7331888310       23.1010036555
  C        15.0509425237        1.5698885301       23.4531334642
  C        11.0198072707        8.6318735924       13.7216004197
  S         3.5390247315        1.8280088492       37.3125732512
  C         3.9387631300       -1.3385953801       37.2541237710
  H         2.0315596634        0.6872669076       17.1185596899
  H         3.6382100947       -0.0326996628       16.9614089757
  C         2.3888157462       -1.0627032665       18.3865845080
  H        15.1885489375        0.6656703741       22.8928552124
  H        14.2763114848        1.3406757880       24.1739163903
  C        16.3806044999        1.9721844424       24.0125650812
  H        10.7899879137        9.6913549247       13.9000591571
  C        11.6674967171        8.4439835619       12.5301316177
  H         3.6065633506       -0.7765482191       38.1074986735
  H         3.2069427837       -2.1290816740       37.0771834391
  C         5.2814712320       -1.9502295882       37.7268008368
  H         1.4693372767       -0.7894641121       18.9179516197
  H         3.0881838718       -1.1662040907       19.2177470918
  C         2.3475823319       -2.3412132223       17.5275292137
  H        16.2425011585        2.9197378559       24.5949739290
  H        16.7160460127        1.2332804958       24.7298711507
  C        17.5430807503        2.1732869055       22.9668850132
  S        12.3732054261        7.0389214681       11.9273789468
  C        11.8053535650        9.5540499066       11.6478666435
  H         5.2313329811       -2.7253698108       38.4418187773
  H         5.8609325078       -2.2929530648       36.8946675935
  H         5.9540492989       -1.1835872320       38.0591789258
  H         1.7790524224       -3.2222590907       17.9163696697
  H         3.2805166499       -2.6700280039       17.1463184708
  H         1.8092679356       -2.0547137279       16.6525978017
  H        17.8213527922        1.1733627505       22.5559116808
  H        18.5301460616        2.4845430215       23.3810041797
  H        17.2671666419        2.8600471467       22.1695771644
  C        12.7763075450        7.9834042845       10.4879483711
  N        12.4245617369        9.2537920009       10.5271282006
  O        11.2569586547       10.6330672051       11.8212678135
  S        13.2896471284        7.2895609602        8.8628063619
  C        12.3866464503       10.1415429726        9.3482369278
  H        12.5240563039       11.1939157706        9.6324244605
  H        13.3087656807        9.8614197720        8.8180922412
  C        11.1494818805        9.8837537611        8.5118858056
  H        11.3046768908        8.9407447435        8.0135565294
  H        10.3216341535        9.6995559844        9.1079212494
  H        11.0505061480       10.6065975942        7.7643064381
  H        21.1143240426       11.1708075226        3.2185154135
  C        21.9576191964       10.4549682752        3.3523626262
  H        21.4069268641        9.5467551621        3.3967621794
  C        22.8218814081       10.7715559193        4.5561251672
  C        22.7039403653       10.4375460708        2.0261520129
  C        22.0721990738       10.8712331819        5.8795159440
  H        23.5858043169        9.9648677252        4.5171613127
  H        23.1935277103       11.7842798719        4.3865115563
  H        21.9279202587       10.6756586959        1.2706066413
  H        23.1957366454        9.5420268756        1.8709184478
  H        23.4331108209       11.2470660460        2.0776674871
  C        21.2534722369        9.6835517944        6.2019951356
  H        22.7577403682       11.1264748151        6.6834484647
  H        21.4462459274       11.7689177098        5.8604766378
  C        20.6471083863        9.8114331446        7.6227890291
  H        21.8322680564        8.7802703157        6.1008754393
  H        20.4553363781        9.5599625418        5.5054439639
  C        19.4025503514       10.6844450320        7.6130934641
  H        21.3953207277       10.2355422784        8.3130406227
  H        20.4778986767        8.8587268347        8.0711843369
  C        18.1591786059        9.9882340100        7.1304382335
  H        19.1614380351       11.0252529931        8.5624444695
  H        19.6065098319       11.5555774760        7.1156922773
  C        16.9133751397       10.9110753469        7.0723855258
  H        17.8884379282        9.1720894993        7.7620910305
  H        18.2665695712        9.4967444005        6.1582246831
  C        17.1953377701       12.2947155015        6.3843057302
  C        16.4364483619       11.6876792540        8.2592446993
  C        15.7170246763       10.1619987617        6.3766496879
  C        16.9784367514       13.3589575085        7.2364358345
  C        17.7623214418       12.6842823658        5.2051708935
  C        16.4922958509       13.0022560653        8.4403353168
  C        15.9600760432       10.9667857133        9.3977953728
  H        16.0437988339        9.8216601711        5.3726271654
  H        15.4408815335        9.2324312548        6.8651438316
  C        14.5009318199       10.9299143908        6.2331266873
  S        17.3881396042       14.8976514641        6.5708024121
  C        17.9258910574       14.0626308550        5.1681292554
  H        18.0241322256       11.9290929704        4.4687141299
  C        16.0817506538       13.5638745243        9.6123398203
  H        16.0699322385        9.9326446783        9.3645621426
  C        15.6611466589       11.5514308132       10.6065629053
  H        14.8940829871       11.8990825427        5.9279928035
  H        14.0647536625       11.1854092367        7.1831567338
  C        13.5401295785       10.2528023409        5.2135833579
  C        18.3848386658       14.7279776754        3.9569732613
  C        15.7099056046       12.8608565579       10.7764583397
  H        16.1353382785       14.6306132227        9.7349455809
  C        15.2729710139       11.0753407325       11.8845438648
  H        12.5755692865       10.7862064236        5.2256752423
  H        13.4296075039        9.2176049142        5.6126324796
  C        14.1632660749       10.2231650652        3.7812838399
  C        18.4043681089       16.1328512378        3.6491617610
  C        18.7653476538       13.9042550312        2.8069849378
  C        15.4022254496       13.5757969769       12.0157536153
  C        15.1623631934       12.1918842753       12.7465377070
  S        15.0131616450        9.5872242480       12.6501088513
  H        14.8217392993        9.4176166272        3.5911324743
  H        14.7870819064       11.0781286511        3.5169091635
  C        13.1051988915       10.1253809719        2.7255420071
  N        18.1951132983       17.1296045284        4.5587832016
  C        18.5610276045       16.6361133798        2.4432473202
  C        18.8909516002       14.4807032975        1.5251832033
  H        18.8918831093       12.8250750698        2.8543130273
  C        14.1037331508       14.4272589794       11.9692160182
  C        16.5220195842       14.3218724556       12.5913029511
  C        14.7638896862       11.7573678459       14.0209105154
  C        14.7894852771       10.3952283902       14.2109133142
  H        12.5869091240        9.1492991519        2.8696025659
  H        12.3693190664       10.9390755132        2.7190784448
  C        13.6940859859       10.1459485832        1.2607537117
  S        17.9537702191       18.5598183787        3.8713568936
  N        18.4054814314       18.0421329398        2.3691340861
  C        18.7587293272       15.8904062502        1.2460623912
  H        19.4321711346       13.9190240617        0.7529200180
  H        14.1475974512       15.3324514993       11.3831845305
  H        13.9167917251       14.7738358597       12.9558059769
  C        12.8738699279       13.6882042400       11.4825997241
  H        16.6832061823       15.1643094292       12.0050510588
  H        16.1667907215       14.7152652875       13.5368623751
  C        17.7993093516       13.5829124149       12.8352710005
  H        14.5439657036       12.4949212202       14.7934249897
  C        14.3676927747        9.6147047087       15.4248279647
  H        14.4994848578        9.3303393797        1.1409751827
  H        14.1172077313       11.1186348003        1.1353936312
  C        12.6105633821        9.9360602810        0.2479104065
  C        18.8553157839       16.5938438576        0.0336414599
  H        13.1829677594       13.4417767912       10.4879029819
  H        12.6304778446       12.7966649396       12.0455034857
  C        11.6731401698       14.5403076715       11.3053320686
  H        18.1700860389       13.1469424607       11.8674482120
  H        17.5990689121       12.7961917401       13.5542477156
  C        18.9020967827       14.4259311998       13.3847564920
  C        14.2032500944        8.2157170542       15.5535368249
  C        13.9714462829       10.3605289684       16.7146189894
  H        12.4079022813        8.8232703640        0.2777653681
  H        11.7459300954       10.5467456304        0.5521154510
  C        12.9849807514       10.2709363058       -1.1947156658
  H        18.4696385106       17.6239267644        0.0883241350
  C        19.0713519920       16.1750719228       -1.2584936877
  H        11.8602986556       15.2677607255       10.5338258806
  H        11.4981527318       15.0415351388       12.2553322672
  C        10.4217201355       13.6389145502       10.9929917541
  H        19.4372209258       14.9068361660       12.5595140714
  H        18.4995731971       15.2213353602       14.0127797392
  C        19.9551033943       13.7043313395       14.1427421768
  N        14.5652157901        7.3066044220       14.5564229161
  C        13.6270620897        7.5805928284       16.6986886625
  C        13.3582976059        9.7052021093       17.8026977678
  H        14.1742445081       11.3897367215       16.8136567104
  H        12.0777291962       10.1284635755       -1.7837061067
  H        13.8746693245        9.7417208808       -1.6264792802
  H        13.3836827353       11.2760146068       -1.1325227320
  S        19.4000963327       14.5368265513       -1.7450309860
  C        19.0399722942       17.1264994148       -2.4120337550
  H        10.8058359669       12.8197347358       10.5387909746
  H         9.9400082887       13.2580582231       11.9278090419
  C         9.3975687701       14.2116303362       10.0585925309
  H        20.3019568331       12.7547628301       13.5843044796
  H        19.4787357620       13.4772275114       15.0758511763
  C        21.1802002629       14.5937569913       14.3381497356
  S        14.2992852794        5.8160580391       15.0802090394
  N        13.5565203295        6.1921232444       16.5107853642
  C        13.2119662016        8.2597059922       17.8506560967
  H        13.3457174919       10.2830127048       18.7613017104
  C        19.5959822246       15.1471833991       -3.3755643802
  N        19.3413717002       16.4999067183       -3.5128509568
  O        18.8554190233       18.3327463282       -2.3191254971
  H         9.2044370502       15.1441606352       10.5440148108
  H         9.9038638736       14.3625501201        9.0820801910
  C         8.0506529249       13.4104562534        9.9717717328
  H        22.0168333085       13.9713904439       14.5312150104
  H        21.3347457266       15.3490512867       13.5342453428
  C        21.0939098786       15.4968416264       15.5793119905
  C        12.8563293115        7.5024185394       18.9778757067
  S        19.9421877375       14.2214563299       -4.8008176679
  C        19.4518106376       17.2380370306       -4.7804085035
  H         8.2244914232       12.5506919854        9.2992760151
  H         7.9461512594       13.0096162936       11.0054614280
  C         6.7802748399       14.1677666307        9.5786298072
  H        21.3660848099       14.9425483360       16.4968668021
  H        20.0609218031       15.8603656980       15.5973190229
  C        21.9598426335       16.7985424223       15.4598007747
  H        12.6223476309        6.4259014927       18.8803289997
  C        12.5086231065        7.8926360500       20.2482214141
  H        19.9690856261       16.6624086086       -5.6054719451
  H        20.0654771780       18.1467872699       -4.6528077622
  C        18.0862731557       17.6739227398       -5.2846386268
  H         6.6628725963       14.0358263617        8.4952600651
  H         6.9875746408       15.1714588224        9.8810119610
  C         5.4772879106       13.6875915858       10.2758334149
  H        22.3766097967       17.0465989521       16.4438352574
  H        22.8207927740       16.6943167516       14.7643010713
  C        21.1913384314       18.0737006510       15.1318583522
  S        11.8823868287        9.4841012534       20.7186752518
  C        12.4933721804        6.8058990858       21.2199551188
  H        17.7192374547       16.8296773514       -5.8799131741
  H        18.0359400218       18.5930397904       -5.8583626380
  H        17.2702241613       17.8086269653       -4.5797151932
  H         5.4453202931       12.7129266719       10.4969746882
  H         5.3332404288       14.1587172117       11.1808834022
  H         4.6021050394       14.0409945823        9.6829253854
  H        21.2713376450       18.8610093095       15.9031651968
  H        21.5642238150       18.5358600083       14.2249235755
  H        20.1330778680       17.9019727674       14.8918144607
  C        11.5648150439        8.6432126873       22.2598457327
  N        11.8963306924        7.3196532031       22.3214988531
  O        12.9639974471        5.6416343919       21.0620655538
  S        11.0337067949        9.3156447506       23.7439572710
  C        11.9838774865        6.4901326351       23.5670796481
  H        11.7376925579        5.5085993545       23.4025826094
  H        11.2036717527        6.8528528724       24.2852333607
  C        13.3539668660        6.5618320302       24.2504800827
  H        14.0885462775        6.1029980981       23.5444197688
  H        13.3223965045        6.0085806125       25.2303429588
  H        13.6725086458        7.5965582631       24.4671465400
