352
 i =    43600, time =    43600.000, E =        25.2918474464
  H        11.6463212468        7.3133696302       31.9983367603
  C        11.3869882576        6.2667333949       32.1295463126
  H        12.3753291240        5.7916739927       32.0644270812
  C        10.6470910618        5.7252688985       30.9350118159
  C        10.6856505652        5.9997850815       33.4360399771
  C        11.3687405407        5.5883588895       29.6866372806
  H        10.2195159949        4.7546249636       31.2334780620
  H         9.8116504382        6.3712409146       30.6796436248
  H        11.3803947831        6.4026746385       34.1551646859
  H         9.8066215467        6.5952313650       33.5646072763
  H        10.5274394376        4.9316202319       33.7391025057
  C        10.3484657951        5.3425686744       28.5808023776
  H        11.9977316821        4.6864031393       29.9229914184
  H        11.8861522891        6.4810717900       29.4590955645
  C        11.0315718675        5.4563450945       27.1792459744
  H        10.0077767448        4.3443025731       28.8478537780
  H         9.5927067974        6.0818446379       28.6016295235
  C        10.1460982062        4.7856863673       26.0877298996
  H        11.9724519075        4.9402231955       27.1838160137
  H        11.2637877567        6.4883781078       26.9349532742
  C         8.9339259941        5.5893215690       25.8066344336
  H        10.5877027076        4.8198730595       25.1692286960
  H         9.9355954958        3.7303009091       26.3533187525
  C         7.7559061607        4.9497616525       25.1561895408
  H         8.4517960027        5.8310040358       26.7616315178
  H         9.1465997026        6.4588174727       25.3019788900
  C         7.4398645054        3.5760717732       25.8322408604
  C         8.0872152828        4.1399011119       23.9189395709
  C         6.4561017287        5.9114023755       25.0955832922
  C         7.5181814865        2.4501651276       25.0712017775
  C         6.9611323548        3.2960735499       27.1179070818
  C         8.0276054354        2.8194796673       23.8196631133
  C         8.5187309329        4.8588615329       22.8104928301
  H         6.5641297085        6.7053821725       24.3405321557
  H         6.3790272303        6.4419198991       26.0730156255
  C         5.2189038969        5.0207911570       24.7648661397
  S         6.9533713891        1.0234254046       25.8334690137
  C         6.6515163413        1.9524573571       27.2642334876
  H         6.9445551969        4.0786235344       27.8609016985
  C         8.3200460334        2.2335892076       22.6188483513
  H         8.6504095596        5.9065455181       22.9517977757
  C         8.7272707391        4.3244771740       21.5930776894
  H         5.4974486921        4.3760427769       23.9212236600
  H         4.9934517230        4.3200374492       25.5636715797
  C         4.0378771178        5.8643465462       24.3492472573
  C         6.2412096807        1.2931055304       28.5295070716
  C         8.6358769124        2.9852707749       21.4130055419
  H         8.2213811838        1.1260832427       22.5061191240
  C         9.0866855397        4.7471899560       20.3185238726
  H         3.4283289194        5.2141974470       23.7342374298
  H         4.3571129384        6.7589765007       23.8380160350
  C         3.2322573387        6.3548576693       25.5770676195
  C         6.0099355371       -0.1052938995       28.7242621287
  C         5.8484629114        2.1685140193       29.6694572480
  C         8.9134807968        2.2630852307       20.0919946590
  C         9.2620468454        3.6564013588       19.4798047102
  S         9.5657726439        6.2156558980       19.6324649151
  H         2.6999362571        7.2119200227       25.2372722299
  H         3.9249509671        6.7383661458       26.3825815436
  C         2.2965923653        5.0827781619       26.0201391206
  N         6.0975545084       -1.1435615142       27.8100398986
  C         5.6133956959       -0.5662750801       29.9751059625
  C         5.4142476662        1.6466766335       30.8858431182
  H         6.0839656606        3.2338824866       29.6060157290
  C         7.6972533543        1.4281980938       19.5120641413
  C        10.2635023135        1.4591635599       20.2442193961
  C         9.6165728026        4.0771440709       18.2060521609
  C         9.7999259992        5.4107062070       18.1438754327
  H         1.6312446469        4.8562668023       25.1181792416
  H         2.9882830341        4.2131844436       26.0264757268
  C         1.5983790060        5.1622043127       27.3994030136
  S         5.8418236260       -2.5958321278       28.5371157010
  N         5.5621093823       -1.9477872781       30.0162751944
  C         5.3404599091        0.1752241994       31.1409503915
  H         5.1438729707        2.3013283475       31.7103225458
  H         7.4139682149        0.6789946603       20.2867801351
  H         8.0189962964        0.8403621431       18.6225977638
  C         6.4582620691        2.2582616157       19.2427948162
  H        10.4427864463        0.9639537801       19.3420903657
  H        10.0687333646        0.6596799269       20.8996789279
  C        11.4713069390        2.1863886721       20.8676957658
  H         9.6225819301        3.3149988743       17.4164815328
  C        10.0980503335        6.1787569380       16.9034033666
  H         1.0581821693        4.1728493191       27.4849264342
  H         0.8231373265        5.9065775654       27.3839931361
  C         2.6355857798        5.3202570492       28.5191311229
  C         5.1290792470       -0.4419667111       32.3685822430
  H         6.8611519260        3.2631763312       18.9036381721
  H         6.0047256615        2.3866864834       20.2072372283
  C         5.3860841104        1.6957653747       18.1784836589
  H        11.4482130096        2.1671085350       21.9246863083
  H        11.4317765368        3.2015068733       20.5996512356
  C        12.8897344136        1.6964546170       20.4882599598
  C        10.0737057398        7.6484491527       16.6778537123
  C        10.3341062288        5.4128573634       15.6408508248
  H         3.1667604354        4.3216524066       28.5778961286
  H         3.2718815150        6.1737183680       28.3458168400
  C         2.0079076837        5.5146770760       29.8820142558
  H         5.1438392287       -1.5255386429       32.4082044333
  C         4.9267808546        0.0058107608       33.6397956708
  H         5.5420957504        0.6255858383       18.1514809216
  H         5.5781367076        2.1410118087       17.2762976048
  C         3.9288322132        1.9634691048       18.5660735732
  H        13.1595146316        0.8884661725       21.1256875605
  H        12.7942308187        1.3720856012       19.5306577805
  C        13.7860829476        2.8777657827       20.5762066034
  N         9.7507536410        8.5858774481       17.6826944203
  C        10.3325715357        8.2474404645       15.4437962026
  C        10.6092267953        5.9697345978       14.4077668597
  H        10.2932186677        4.3653148295       15.6549096539
  H         1.0006896459        4.9955122225       29.9614183632
  H         2.7556778416        5.2646818981       30.7383364262
  H         1.6676570232        6.5628466492       29.9055212720
  S         4.6873569298        1.6251097714       34.1517652427
  C         4.9123078672       -1.0154210538       34.7514447766
  H         3.9148353739        2.5985292763       19.4682221724
  H         3.4115361864        2.6320925387       17.8528101689
  C         3.1554970497        0.7114094817       18.9000936509
  H        13.3277574911        3.7830650002       20.0937269479
  H        14.7132721075        2.6159586362       20.1151878163
  C        14.1388470676        3.3282308439       21.9565658275
  S         9.7311725392       10.0290007537       17.0192996899
  N        10.2227667807        9.6091284433       15.5489734104
  C        10.7131673741        7.4595215971       14.2878356276
  H        10.9462087936        5.4338045334       13.5355481006
  C         4.4399299003        1.0479373463       35.7810692343
  N         4.4757277798       -0.3162334227       35.8366206505
  O         4.8334160496       -2.1834958469       34.6216009036
  H         2.2212258990        1.1030368339       19.2888783266
  H         3.6611840723        0.2339501410       19.7428842463
  C         2.9211783625       -0.1180308275       17.7262836589
  H        14.7106830917        4.1999181263       21.9575490655
  H        13.2692068449        3.5247063309       22.5716724964
  C        15.0264710834        2.2888600520       22.7489884902
  C        10.9502992505        8.1937110130       13.0715425334
  S         3.9078115078        1.9172642166       37.1549105032
  C         4.4938527172       -0.9341311731       37.1279437584
  H         1.9910434463        0.1472827612       17.2403120978
  H         3.6896591030        0.1548215392       16.9615651745
  C         2.8478155901       -1.6320275597       17.9238290882
  H        14.8443436759        1.2568784383       22.5778246101
  H        14.6440919839        2.3650368330       23.7515871347
  C        16.5319539355        2.5122406214       22.9886100907
  H        10.6518432028        9.2294076215       13.1641333153
  C        11.5998427581        7.8892393670       11.8935221400
  H         3.9627965693       -0.3709773357       37.9461907389
  H         3.9318472813       -1.8865348485       37.2170237354
  C         5.9237214967       -1.2004796961       37.5119133862
  H         3.1303618781       -1.8592475333       18.9829468772
  H         3.3858570371       -2.1640078400       17.1395834083
  C         1.3667911184       -2.0292307552       17.5898150127
  H        16.7554347315        3.5237670324       23.3761068625
  H        16.8845459681        1.8820506135       23.7684056162
  C        17.4863632755        2.3232176500       21.7965481129
  S        12.4124715597        6.3639762616       11.5053837860
  C        11.6099717603        8.9560864059       10.9066106580
  H         5.9408605386       -0.6934277418       38.4742910121
  H         6.1450160874       -2.2951071269       37.5776510078
  H         6.6454707627       -0.8043673622       36.8155113177
  H         1.2809220072       -3.0902119247       17.9993357474
  H         1.1110976878       -2.1216147687       16.5011190696
  H         0.5650342648       -1.4374420565       18.0681130721
  H        18.4451334786        2.4274904986       22.2412764553
  H        17.3530277975        3.1781566649       21.1477065484
  H        17.4029335083        1.3882829636       21.2456407777
  C        12.6662822657        7.2026377226        9.9501914678
  N        12.3146150142        8.4750123265        9.9367019006
  O        11.0338414622       10.0398112085       10.9429511790
  S        13.7284933381        6.5879249518        8.6835705329
  C        12.4685313981        9.2528833507        8.7610183488
  H        12.5096117106       10.3606477862        8.9054388716
  H        13.2799927747        8.9989080791        8.1390484785
  C        11.2120358450        8.9879754276        7.9401354997
  H        11.5736937652        9.1592418294        6.9533044414
  H        10.7832149844        7.9986796778        8.0089942822
  H        10.4824954323        9.7459076214        8.2019755375
  H        21.0923327215       11.3073056662        3.2336914059
  C        21.6461968708       10.3441964695        3.3265065795
  H        20.9133365719        9.5252633764        3.5677801690
  C        22.6529085737       10.5044006510        4.4243658459
  C        22.3435986986       10.1242156980        2.0242895617
  C        21.9139956239       10.6076230687        5.7544908134
  H        23.3116508902        9.6486740702        4.4481973097
  H        23.2634898994       11.4655939454        4.4435177587
  H        22.9193479674        9.1924181441        2.0950246900
  H        23.0894367753       10.8920719313        1.8852885239
  H        21.6229452556        9.9768808443        1.1479991176
  C        21.4497421574        9.2899226608        6.3540867326
  H        22.6209609707       11.1593684265        6.4071030307
  H        21.0972339431       11.2336424528        5.5228485440
  C        20.6086175307        9.5016614089        7.6995387744
  H        22.3136651180        8.7081003700        6.7027248133
  H        20.8089229560        8.7461621898        5.6450147884
  C        19.3256684800       10.4372786708        7.5645834066
  H        21.2830115046        9.9224512368        8.4115354491
  H        20.3914878395        8.4811587261        8.1193022511
  C        18.1628270855        9.5985567627        6.9649418308
  H        19.1104069067       10.8243309157        8.4681092527
  H        19.4973566414       11.3435196947        7.0985656811
  C        16.9558724981       10.4613073120        6.6015501748
  H        17.8899125433        8.8388946471        7.6582138024
  H        18.5576006369        9.2068361920        6.0301109266
  C        17.2653469534       11.8462200405        5.9657406123
  C        16.4372256132       11.1570929579        7.8535184456
  C        15.8238210781        9.7519153709        5.8854725713
  C        16.9364918918       12.8863188672        6.7900484867
  C        17.7961668001       12.3123981230        4.7637396698
  C        16.5153459267       12.5130723944        7.9713328754
  C        15.9581958860       10.4740084413        8.9895577924
  H        16.1809800503        9.4295954061        4.9100711605
  H        15.4575373262        8.9039764302        6.4569065974
  C        14.6504057791       10.6528936977        5.4771312697
  S        17.2690115892       14.4274213439        6.0923114729
  C        17.6517596967       13.6934195008        4.6594400974
  H        17.9678588805       11.6289992832        3.8942053283
  C        15.9961029108       13.1948806549        9.0629829589
  H        16.0020328733        9.3840878743        9.0443660042
  C        15.5234828489       11.0953471494       10.0881550823
  H        15.0734683177       11.3826838603        4.8291942200
  H        14.2069149200       11.0402583833        6.3315814480
  C        13.7087406384        9.8671192418        4.7237788844
  C        17.8105412155       14.4362589191        3.3852955633
  C        15.5044665692       12.4692428774       10.1656747002
  H        15.9563613025       14.2562683721        9.0176521568
  C        15.0730014432       10.7447336674       11.3534174627
  H        12.7798710978       10.0174433676        5.2230028118
  H        13.9359783815        8.8017274392        4.7050884043
  C        13.6053354984       10.4195426464        3.2699016028
  C        17.8242489456       15.8505380030        3.1420185795
  C        18.2179444062       13.5189793345        2.2488513655
  C        14.9674285253       13.1915544417       11.3739164618
  C        14.7405921770       11.8880311498       12.1174516974
  S        14.8268268191        9.2540072855       12.1878297767
  H        14.3309035991        9.8701672453        2.6385195551
  H        13.6279639737       11.4688325185        3.2145573045
  C        12.1971355644       10.0990532511        2.6999230337
  N        17.4611069075       16.9243562890        4.0165186386
  C        18.1313656084       16.3233050321        1.8239158160
  C        18.5052721284       14.0481045691        0.9795316818
  H        18.4405568285       12.5213108785        2.3991908324
  C        13.6780271471       14.0040752702       11.1504379136
  C        16.0895899501       14.1451945291       12.0300890575
  C        14.3782619920       11.5043346104       13.4178546380
  C        14.4439763127       10.1555200162       13.6539671670
  H        11.6911564423        9.3265530278        3.3434509961
  H        11.5394051258       10.9605225251        2.8778356863
  C        12.1018629272        9.8225781081        1.2031870781
  S        17.6307598504       18.3111415191        3.1974927484
  N        17.9652115432       17.7130130241        1.7402236211
  C        18.4966205075       15.5298885395        0.7345769198
  H        18.7883539309       13.3550051133        0.2561475448
  H        13.8260610004       14.8038467319       10.4620631202
  H        13.3967208681       14.5204997957       12.0998764833
  C        12.4306736198       13.2382201391       10.7636975081
  H        16.3575572704       14.9574197315       11.3402925520
  H        15.6089393268       14.7368345496       12.8569893225
  C        17.3984584201       13.4387505947       12.6314538096
  H        13.9491008560       12.2442611976       14.0857365697
  C        14.0029956845        9.5719308636       14.9449755261
  H        11.0293659107        9.9876930711        0.8205217241
  H        12.2656690070        8.8022130415        1.1467152499
  C        13.1698879648       10.5746655557        0.3583135829
  C        18.8647302550       16.2570921142       -0.4763061339
  H        12.6741616778       12.5735900366        9.8931935294
  H        12.2475235079       12.5486686992       11.6024236801
  C        11.2312349529       14.2033307179       10.5155435661
  H        17.9603983642       12.9026980407       11.8421305581
  H        17.2453341132       12.6293244026       13.3971986148
  C        18.2186102032       14.4902563146       13.3268178437
  C        13.8157176559        8.1908833920       15.2082837877
  C        13.8373795111       10.3933385606       16.1662649886
  H        13.5096722536       11.5524805668        0.7084014146
  H        14.1095505725        9.9422106684        0.3672327217
  C        12.5906230783       10.6189500942       -1.1365974466
  H        18.6498779757       17.2604399110       -0.4742709967
  C        19.3373735092       15.7595907544       -1.6870974411
  H        11.5089166121       15.0290945972        9.9436424809
  H        10.8830213695       14.6939782507       11.4482861715
  C        10.1163648433       13.3904178087        9.9597801187
  H        18.3353148316       15.4012905433       12.6287584323
  H        17.6038862296       14.8479848716       14.1202091819
  C        19.6494089579       14.0418530187       13.7751276885
  N        14.1918581288        7.1480264270       14.2535302767
  C        13.5444709160        7.6137772411       16.4448931605
  C        13.3985103964        9.8167477198       17.3944532492
  H        13.9622893778       11.4417297087       16.0407869697
  H        13.3149584396       10.7530607483       -1.9113045900
  H        11.8462816213       11.3728673331       -1.2407737847
  H        12.1396812447        9.6825661582       -1.3178199995
  S        19.8729994800       14.1835247387       -2.1271848598
  C        19.4734945373       16.7819917948       -2.7491340748
  H        10.4277099879       12.7495511475        9.1575790424
  H         9.8945827342       12.6922769633       10.7233215604
  C         8.9634865580       14.2844760889        9.4476990343
  H        19.8703042735       13.0188021860       13.4273270284
  H        19.4972789779       13.9627782894       14.8646210648
  C        20.7262894429       15.0357125821       13.3576653922
  S        14.0005318578        5.7078205229       14.9676623467
  N        13.4380151507        6.2192720789       16.4351781865
  C        13.2378226132        8.3806431079       17.6430323580
  H        13.3393267101       10.4173469324       18.3322447509
  C        20.1973140748       14.8353183705       -3.6988050254
  N        20.0151400876       16.2023964895       -3.7732680268
  O        19.1552306173       17.9491017921       -2.6347728823
  H         8.7526924611       15.0769070093       10.1830267226
  H         9.2728330588       14.8642364019        8.5865173879
  C         7.7105439586       13.4242280429        9.1188368242
  H        21.6523264374       14.4907850903       13.1510465265
  H        20.5326374138       15.4902002591       12.3825146015
  C        20.8468608405       16.0560152800       14.5362123133
  C        12.9510853624        7.7582339085       18.8530291527
  S        20.5114496069       13.9060142601       -5.1678954698
  C        20.0278520869       16.9609717802       -5.0200115830
  H         7.7945221867       12.8417149978        8.2048269143
  H         7.5725677439       12.7598067559        9.9719511605
  C         6.4982695386       14.3039557131        8.8518779716
  H        20.9944826082       15.7142244956       15.5370632363
  H        19.8835583293       16.5314911864       14.5703665731
  C        21.9226278651       17.1128161116       14.2349769321
  H        12.9367827647        6.7161979045       18.7399195972
  C        12.3550918836        8.2597113707       19.9970295690
  H        20.7843358132       16.4680033929       -5.6374082244
  H        20.2903295871       18.0097554518       -4.7702271934
  C        18.6373450382       16.9407014701       -5.7317186604
  H         6.0034391637       14.1491576624        7.8657853291
  H         6.6325248828       15.3463807374        9.0426734779
  C         5.4048626324       13.9062533371        9.8546052543
  H        22.9570492530       16.7051878204       14.1608663653
  H        21.7856704609       17.6636119006       13.2144019632
  C        21.8138485677       18.0666490948       15.4097150122
  S        11.7502511991        9.8445484120       20.2988682825
  C        12.2725604605        7.3539327518       21.2003998538
  H        18.9038664476       16.7791336706       -6.7683816406
  H        18.2818034882       17.9581598076       -5.5906506703
  H        17.8264279758       16.2457764753       -5.4561869596
  H         5.9022369364       13.6360522301       10.8197811036
  H         4.6126164218       14.6522273379       10.0137604487
  H         4.8877602322       12.9800110493        9.6817136554
  H        22.1479091740       17.6515249596       16.3717283702
  H        22.2650279945       19.0337434066       15.2772268964
  H        20.8093040788       18.3793313135       15.4720739247
  C        11.2695882421        9.2733415158       21.8823851351
  N        11.6375476911        7.9539766781       22.1673094043
  O        12.6238415878        6.1894641592       21.2348893193
  S        10.5859847689       10.3174252251       23.0704476681
  C        11.5529463416        7.3973425872       23.4978031980
  H        11.0164656841        6.4072174507       23.5044044596
  H        11.0729666270        8.0222157969       24.2163774641
  C        12.9561996396        7.2321894449       24.0561976799
  H        13.4523282356        6.3490583195       23.5954414158
  H        12.8944036954        7.1325838966       25.0825013364
  H        13.5872122003        8.1074194884       23.8764312051
