352
 i =    28500, time =    28500.000, E =        24.6837128059
  H        11.5046638110        7.1319943182       32.3890982616
  C        11.5953832617        6.0507332672       32.2933111680
  H        12.6462690439        5.6498039633       32.1947544906
  C        10.7241582226        5.4778205172       31.1298896093
  C        11.2620248218        5.4267743561       33.7271493441
  C        11.1966779724        6.0582678510       29.7583606076
  H        10.6546920358        4.3730444328       31.1687240191
  H         9.6324843177        5.8178670748       31.2884802556
  H        11.5734954899        4.4144623692       33.6592285601
  H        11.8862959872        5.8558389046       34.4922023343
  H        10.1858478576        5.3936300760       33.9142643741
  C        10.9642248745        5.1154357394       28.6319854237
  H        12.2051506256        6.4039560062       29.8531281946
  H        10.4527242158        6.8964473129       29.6100223499
  C        10.6160943314        5.7319944212       27.3170176557
  H        11.8865947085        4.4998458185       28.5356975886
  H        10.1219194408        4.5055942501       28.9434215081
  C         9.5664538604        5.0056824654       26.4725452992
  H        11.6069834042        5.6208148229       26.8429362330
  H        10.4289206972        6.7764255788       27.3242297801
  C         8.3869039820        5.9660459752       26.1814416707
  H        10.1453158115        4.7358137533       25.5870364783
  H         9.2265302591        4.0916791120       27.0030448126
  C         7.2584360036        5.2610714918       25.4818893479
  H         8.0441705644        6.2493205983       27.2049047909
  H         8.6649958040        6.8701907289       25.5833221269
  C         6.9299069179        3.9503226009       26.1631565524
  C         7.6690228069        4.5382818872       24.3138799817
  C         5.9612603343        6.1086212384       25.3342241418
  C         7.2167010295        2.8310032774       25.3931397994
  C         6.4747430696        3.4936031241       27.4047210144
  C         7.7560720393        3.1893021921       24.2174644208
  C         8.1352975428        5.2600669730       23.1974899611
  H         6.2717695666        7.0050204191       24.8133401484
  H         5.6940051867        6.4825188687       26.3476959366
  C         4.7822353679        5.6015904299       24.5486811869
  S         6.8776038766        1.3430967864       26.0860257066
  C         6.2535755814        2.1600038505       27.4847545581
  H         6.4354416051        4.1716398751       28.2207633312
  C         8.2048933576        2.6165250164       23.0473988491
  H         7.9988158807        6.3167653584       23.2851438978
  C         8.5912735052        4.6689445297       22.0643503636
  H         5.0806416130        5.4290538122       23.4588696029
  H         4.6353339251        4.5798125850       24.8587322802
  C         3.5124475747        6.4217463201       24.7863536798
  C         5.8999117510        1.4395671397       28.7348265379
  C         8.6563661075        3.2961574661       21.9646281429
  H         8.2990842196        1.5551061301       23.0772592924
  C         8.9187791037        5.0711322844       20.8418643354
  H         2.7025749531        6.0117011140       24.0959350034
  H         3.7442463194        7.5026106624       24.5274220329
  C         2.9491906913        6.3693989458       26.2231895665
  C         5.9259997321        0.0727991061       28.9584951649
  C         5.4749428301        2.2304647573       29.9555333703
  C         8.9106973045        2.5753721113       20.6767441747
  C         9.0970125282        4.0014957711       19.9945104361
  S         9.0891618130        6.6133146429       20.0555873433
  H         2.1106817951        7.0399824366       26.1871766267
  H         3.5880743324        6.7622538402       26.9866273283
  C         2.5020580006        4.9892460439       26.7155930288
  N         6.3055844194       -0.9246257563       27.9970500572
  C         5.5890199449       -0.5251547344       30.1614651628
  C         5.0833170839        1.5781226691       31.1021774292
  H         5.4165589838        3.2841347999       29.9098268833
  C         7.6451946754        1.8215119366       20.1976147959
  C        10.2368344308        1.7452845514       20.4639131915
  C         9.3425175961        4.4101460796       18.6622176192
  C         9.4735477283        5.7622590950       18.5635305153
  H         2.0682200209        4.4808671798       25.9053327654
  H         3.3462529401        4.4184712378       26.9044112612
  C         1.5832364694        5.0253048841       27.8680891817
  S         6.3777270346       -2.3944063413       28.7080922543
  N         5.8002436890       -1.9271106550       30.1604544880
  C         5.0629061644        0.0956149884       31.2932453928
  H         4.8658645878        2.2215151451       31.8855182233
  H         7.1866250276        1.2626754431       20.9719629651
  H         7.9152415504        1.0514076067       19.4837963196
  C         6.6203129773        2.7271539474       19.4400281652
  H        10.5718329336        2.0216251887       19.4466226936
  H        10.0242288410        0.6813328577       20.6108111158
  C        11.3719104142        2.0721118413       21.4202547128
  H         9.5953925676        3.6702795405       17.9562723680
  C         9.8254049254        6.5058770305       17.3055934157
  H         1.1512398291        4.1016990556       28.0688677116
  H         0.7984808753        5.7329868704       27.6715259007
  C         2.3930987206        5.4139075454       29.1669787897
  C         4.8526491610       -0.5797423054       32.5216728548
  H         7.0264361068        3.1623622741       18.4753550625
  H         6.2671529476        3.4567039581       20.1175607929
  C         5.4335736412        1.8901575366       18.9984910768
  H        11.0119072350        1.7769963594       22.3684963723
  H        11.5413269249        3.1514216955       21.5168538288
  C        12.7310317623        1.4740333826       21.0100399352
  C         9.8864353059        7.9247392224       17.1918178769
  C        10.1006182947        5.7429010662       16.0707324353
  H         3.2574971243        4.7237159870       29.2272512819
  H         2.8452659611        6.3954655604       29.1276711913
  C         1.6347932254        5.4040607842       30.5202348762
  H         5.0057446452       -1.6401126109       32.4791556569
  C         4.5186042023       -0.0935902453       33.8228612678
  H         5.0439888039        1.4201361210       19.9513283672
  H         5.8238865394        1.1737081517       18.3265031002
  C         4.2726568300        2.6537054292       18.5011330886
  H        12.9422281561        0.8454410330       21.8928390450
  H        12.6849666436        0.7805075070       20.2028683072
  C        13.8851766897        2.4282008387       20.9115591985
  N         9.4755449525        8.8321692931       18.1432476404
  C        10.2730867771        8.6135902576       16.0273931323
  C        10.3484295407        6.4439224116       14.8342260676
  H        10.0561822858        4.6701435999       16.0245395720
  H         2.4211771341        5.6507457595       31.3091890949
  H         0.9778469716        6.2238851526       30.6349160590
  H         1.0416968641        4.5243630083       30.6191531996
  S         4.1526756614        1.5043821545       34.2854071075
  C         4.5394340183       -1.1440680328       34.8632801107
  H         3.9762958675        3.4208588499       19.1738232714
  H         4.4816897141        3.2655089926       17.6213902641
  C         3.0091007740        1.8048271994       18.3458269421
  H        13.5786523499        3.3642140843       20.3683252135
  H        14.6585487666        2.1162876726       20.2572290065
  C        14.4906565091        2.7389404688       22.3207827609
  S         9.8927358855       10.3221703449       17.7382901877
  N        10.3760925893        9.9832600637       16.2091828849
  C        10.4670754075        7.9163093479       14.8021901175
  H        10.3513314891        5.8885706269       13.9561108765
  C         4.0772929712        0.8035190142       35.9337029471
  N         4.2827838408       -0.5456393073       36.0588409884
  O         4.9073560705       -2.2922020990       34.6657836565
  H         2.2151592959        2.4236061202       17.8513440120
  H         2.6709420555        1.6573268439       19.3288657409
  C         3.1384592547        0.6025516715       17.4288841376
  H        15.0774700261        3.6420437299       22.2547078387
  H        13.5976261114        2.8777347347       22.9801495134
  C        15.3244373248        1.4554003375       22.7753804972
  C        10.8113486268        8.6517590383       13.6336481836
  S         3.7327661885        1.6741682608       37.3971588355
  C         4.4169315353       -1.2976438940       37.3028720955
  H         2.3524186312        0.7615972816       16.7341244411
  H         4.0627840312        0.7507907166       16.8149803300
  C         3.2571775800       -0.8213495765       18.0794698243
  H        15.3055882069        0.6064822377       22.0616085142
  H        14.8280750416        1.1454471747       23.6943544097
  C        16.7509858868        1.7720402465       22.9719228178
  H        10.6237500997        9.7402659476       13.8533429237
  C        11.2299040740        8.3223248251       12.3900376484
  H         3.7874824059       -0.9507744380       38.0546669969
  H         4.1030739922       -2.3738503761       37.1588727441
  C         5.8564054242       -1.3046228550       37.7217912433
  H         3.6937836611       -0.7168929385       19.0586001353
  H         4.0288267902       -1.4154460769       17.6217500341
  C         1.8670991076       -1.4082454839       18.1305890281
  H        16.9095293514        2.6872763022       23.4908334647
  H        17.3100455740        1.1223888591       23.5845224187
  C        17.6880957429        1.8720922459       21.7888476983
  S        11.9127561457        6.7520895924       11.9860445690
  C        11.3684129504        9.4592845128       11.4281401698
  H         6.1155736752       -2.2951455665       38.2330287340
  H         6.4208459492       -1.1963546624       36.8743669701
  H         6.0294265596       -0.5958549505       38.4744279426
  H         2.0021145065       -2.3804137780       18.7479851515
  H         1.3924884480       -1.5439463103       17.1875130479
  H         1.2155327863       -0.8591212788       18.8044055934
  H        17.5206146549        2.7777947577       21.2000386067
  H        17.6394451070        0.9839113458       21.2018521760
  H        18.7444936105        1.9758077250       22.0936612090
  C        12.2474978548        7.5745887497       10.4180824804
  N        12.0961764515        8.8940562438       10.3672670820
  O        11.0016408584       10.6303204632       11.5990004231
  S        13.0248705623        6.7200716111        9.0139002108
  C        12.4121420326        9.6669412623        9.1927503182
  H        12.2824918423       10.7218416323        9.4934554428
  H        13.5028931858        9.5391862783        8.9499378134
  C        11.4309945018        9.3971310981        8.0667805466
  H        10.8388569195       10.2714283695        7.8154521748
  H        11.9406792879        9.0477081310        7.1347016265
  H        10.8360058423        8.5350051185        8.3965306472
  H        21.1805591738       11.5449635273        2.8747076441
  C        21.8393818445       10.7579185925        3.1461632407
  H        21.2479269477        9.8616475704        3.3974461267
  C        22.7068423483       10.9564988653        4.3648931465
  C        22.6453312653       10.4151719334        1.8605671024
  C        21.9111499680       11.1357756410        5.6423982255
  H        23.3646754349       10.0996727306        4.4765596533
  H        23.3667279538       11.8788882087        4.2892684192
  H        23.3525329844       11.2613004822        1.6596476946
  H        22.0188637325       10.1733590373        0.9355446473
  H        23.1106509130        9.5045476559        2.1048737974
  C        21.0717343383        9.9739138550        6.1049816522
  H        22.7021676988       11.2042339622        6.4441364215
  H        21.2535654060       11.9811751119        5.6538504846
  C        20.5980323452        9.8782231499        7.5304238375
  H        21.7436675712        9.0684123142        5.9762849167
  H        20.2640120680        9.7996186540        5.4424008149
  C        19.3434967523       10.6693029881        7.6542886652
  H        21.2568094564       10.1955781438        8.2783126142
  H        20.5220940299        8.8459597950        7.7678770798
  C        17.9502160832       10.0071805412        7.2443162101
  H        19.2825683676       11.0157534888        8.6974917181
  H        19.4692726528       11.6032097512        7.0589771503
  C        16.7619014598       10.9091421734        7.0159084681
  H        17.6701960196        9.3014232421        7.9877467054
  H        18.0020864052        9.4300768749        6.3153929293
  C        17.0969931248       12.2575187065        6.3168533366
  C        16.3804193561       11.6880558124        8.2480461830
  C        15.6345285474       10.1290991936        6.3838939503
  C        16.9436255488       13.3744016599        7.0975927246
  C        17.6180418204       12.6304918412        5.0334690151
  C        16.4633400228       13.0367858015        8.3866683246
  C        15.9121358611       10.9587684060        9.3125284458
  H        15.8736493308        9.7877338420        5.4158629016
  H        15.4245325148        9.2060732336        7.0005045995
  C        14.2992135233       10.9077531420        6.2694359946
  S        17.2350408719       14.8414945895        6.2363148368
  C        17.6938574058       13.9628072672        4.8329329330
  H        17.7294232426       11.7791301889        4.3106498668
  C        16.0309851577       13.6785307299        9.5017294375
  H        15.7707294260        9.8599957327        9.2497651462
  C        15.5897373598       11.6088473173       10.4507405441
  H        14.5292635361       11.9840762497        6.1036162587
  H        13.7355450865       10.8501385979        7.2548339434
  C        13.3494873148       10.5061667880        5.2035593384
  C        18.1460641793       14.6502538541        3.5208061884
  C        15.6325009854       12.9400379415       10.6110535402
  H        16.0698051732       14.7382887698        9.5209795690
  C        15.0585579754       11.2160363977       11.6489421706
  H        12.4218293660       11.0174762132        5.3906518898
  H        13.1500138877        9.4216945120        5.2612948435
  C        13.7729838613       10.7894268716        3.7329012679
  C        18.2915364155       16.0280332865        3.3930508103
  C        18.4404293366       13.8477824334        2.2978245830
  C        15.2297024833       13.6284568417       11.8454030757
  C        14.8909225557       12.2601907536       12.5091307440
  S        14.6898722338        9.6538294242       12.3996000249
  H        14.8486140156       10.5393240289        3.4458551110
  H        13.4644689236       11.8764958662        3.6604144280
  C        12.8323254488       10.1705901088        2.6799091775
  N        18.0074144621       17.0027921644        4.4076092275
  C        18.5795577921       16.6760966579        2.2010948283
  C        18.8017144080       14.5116765394        1.1467400821
  H        18.5081774097       12.8552882776        2.3828846388
  C        13.9200242042       14.4222545907       11.7382215924
  C        16.3275095875       14.3319959210       12.6364101042
  C        14.5196535066       11.8952323356       13.8066396892
  C        14.4179003237       10.4827789586       13.8894991287
  H        12.6222181860        9.1498404941        3.0311486694
  H        11.8314829331       10.6754142024        2.6895718736
  C        13.4470465290       10.2723218074        1.2686620459
  S        18.2560636556       18.5465184100        3.8118103282
  N        18.6418074837       18.1169699448        2.2477097791
  C        18.8258418534       15.9669264520        1.0217786703
  H        19.0449311780       13.9506715242        0.2468848323
  H        14.1348520428       15.4164474256       11.3236150289
  H        13.5986797784       14.6823509642       12.7514871113
  C        12.8448311935       13.6284478433       10.8580823655
  H        16.7423996531       15.1175268095       12.0175448110
  H        16.0231585929       14.8231602491       13.5639280408
  C        17.4864841259       13.4451260567       13.0314213935
  H        14.5259461939       12.6799723388       14.6114094672
  C        14.0085813326        9.6508924411       15.1238003736
  H        14.2628603847        9.5796399615        1.2583076848
  H        13.8435002828       11.2653341753        1.1735053337
  C        12.5938653123        9.8944909764        0.0619612564
  C        19.0998776070       16.7311275785       -0.1570383893
  H        13.2207525745       13.2093010834        9.9905580868
  H        12.3738485913       12.8187441435       11.4371601410
  C        11.6262654703       14.5627750915       10.6251578494
  H        17.8811561527       12.9928787353       12.0890423707
  H        17.1533823857       12.5775131231       13.5860660342
  C        18.5962538617       14.1996363127       13.7083154549
  C        13.8898673459        8.2592603765       15.2222576073
  C        13.9338953022       10.3415023193       16.3962771022
  H        13.3192906455        9.5820577393       -0.6589391822
  H        12.0463469922        8.9983919418        0.2291013260
  C        11.6765156103       10.9933771303       -0.5128668821
  H        19.0780573805       17.7465547955       -0.0913451513
  C        19.4287743339       16.3595647246       -1.4508556961
  H        11.9155718897       15.4140309143        9.9843903851
  H        11.5282180523       15.0026320896       11.6044173223
  C        10.5344946438       13.6835883399       10.1117480193
  H        18.9657307310       14.9856357621       13.0330038745
  H        18.1473824685       14.7595816665       14.5158230098
  C        19.7052728678       13.3548437846       14.1952456459
  N        14.2181116350        7.3827869901       14.1539619462
  C        13.4837724437        7.5912510025       16.3504093811
  C        13.5364246476        9.6681044017       17.6085617653
  H        13.9553008654       11.4340903403       16.4212976463
  H        12.2955673766       11.9074114298       -0.7390038213
  H        10.8663975083       11.3830470698        0.1767731021
  H        11.1120725955       10.6263470683       -1.3101082400
  S        19.6747803950       14.7199427189       -2.0425559458
  C        19.5073317028       17.4484036013       -2.5244633089
  H        10.8800028735       13.0194925400        9.3668991963
  H        10.3148463025       13.0778936374       10.9280263957
  C         9.2436689663       14.3849216176        9.5445068379
  H        19.6937515635       12.4063347466       13.5259950568
  H        19.5368266999       13.1161914613       15.2867943090
  C        21.1225587710       13.9948807404       14.0513245532
  S        14.1640959709        5.8331099864       14.7364146550
  N        13.5160266145        6.1754106133       16.1644908701
  C        13.2934761375        8.2348679808       17.6135408247
  H        13.2592508858       10.2661643502       18.4775281464
  C        19.8507455515       15.4581371042       -3.6589983493
  N        19.6633080971       16.7945176809       -3.7243841481
  O        19.4978176045       18.7041437121       -2.2962573490
  H         9.0209419128       15.2853315413       10.2385752288
  H         9.6326024147       14.9455575570        8.6570504843
  C         8.0841925965       13.4639961001        9.2947081230
  H        21.9298002739       13.3871417972       14.5771142997
  H        21.4662066160       13.9430681420       12.9633567238
  C        21.1778937980       15.4205605385       14.6563770085
  C        12.9636935484        7.4894412427       18.8051069475
  S        20.1195457831       14.5717998808       -5.1139409766
  C        19.4875635784       17.4926928149       -4.9857728189
  H         8.2546731861       12.9324134219        8.3643633625
  H         8.1437104019       12.6366908230       10.0203863663
  C         6.6775761849       14.1763813194        9.0703605395
  H        21.8924088044       15.3327631443       15.4099033181
  H        20.2690090019       15.7016406988       15.2003420267
  C        21.6902627741       16.5612711058       13.7549628779
  H        12.8757450010        6.4305251730       18.6685786345
  C        12.4483652444        7.9130056343       20.0489066491
  H        20.3011833445       17.3070005414       -5.7436699987
  H        19.5648054218       18.5457494104       -4.8161343426
  C        18.0726153661       17.1432326914       -5.5538235740
  H         6.0675903731       13.5315180740        8.4272366642
  H         6.8938822561       15.1876996179        8.5837943502
  C         5.9108469337       14.3509424520       10.4025109128
  H        22.4981384127       16.0756710319       13.1660441769
  H        20.8850961662       16.8894945513       13.0253596689
  C        22.1810570915       17.7769714134       14.5809266561
  S        11.9727570296        9.4906368016       20.5772930212
  C        12.3302613645        6.7942643878       21.0575324510
  H        17.7689906299       17.7157524791       -6.4510928512
  H        17.2238744001       17.0408746093       -4.8063083245
  H        18.1689661066       16.1071178639       -5.8408407261
  H         6.4397025706       15.0540667715       11.0378229319
  H         4.9094111405       14.6749295118       10.2018218532
  H         5.7513434170       13.4155034842       10.9153679770
  H        21.6285262848       18.6217144694       14.4027418598
  H        22.2265603586       17.4757079082       15.6007193733
  H        23.2078724839       18.0222526480       14.3799901480
  C        11.5773444649        8.7105182769       22.0667312065
  N        11.7990780052        7.3891744489       22.1556672872
  O        12.8311600247        5.6858756630       20.9795324213
  S        10.6871729381        9.5765179977       23.3119001363
  C        11.4994051711        6.5130546497       23.2950886379
  H        11.0726420827        5.6535124742       22.8225386323
  H        10.7515706412        6.9172716147       23.8885415929
  C        12.7586981227        6.1715744149       24.1419467960
  H        12.6084558024        5.3442820424       24.8978842836
  H        13.0552854888        7.0691321367       24.7491588562
  H        13.6660398580        5.7971658473       23.6352278856
