352
 i =    52000, time =    52000.000, E =        24.7278384976
  H        12.3920069960        6.6985211216       32.0852830853
  C        11.5130280503        5.9900906788       32.1693242295
  H        11.7963311351        4.9307191521       32.2074168695
  C        10.4324425315        6.1721878954       31.0712773239
  C        10.8317646114        6.1741643532       33.4935598835
  C        11.0494040541        5.7308875021       29.6927502931
  H         9.5856414853        5.5085441288       31.2761983254
  H        10.0349597206        7.2102763805       31.0512614663
  H        10.1614431800        7.0436854542       33.4233254374
  H        10.3344216660        5.2346369170       33.6434465008
  H        11.5782932884        6.1951988310       34.3296441969
  C         9.9954327139        5.6171195915       28.5975585988
  H        11.5910088518        4.7784135084       29.7243354213
  H        11.6955971915        6.4757442213       29.3579995749
  C        10.5527956383        5.6380086187       27.2166173898
  H         9.3588876850        4.7705964595       28.6919346848
  H         9.4123654195        6.6043369588       28.6934697369
  C         9.5805160132        4.9469322942       26.2598015013
  H        11.4901840859        5.1851976745       27.2806406080
  H        10.7633074857        6.5976791923       26.8692687460
  C         8.4371005617        5.8923629070       25.9262847150
  H        10.1440323144        4.6766260049       25.3762842454
  H         9.1055259454        4.0150397822       26.7527113855
  C         7.1397546747        5.2679819750       25.2048785687
  H         8.1150989951        6.2608386459       26.9240822487
  H         8.8531969320        6.7669259057       25.3808794390
  C         6.6655995030        3.9600773225       25.8085932488
  C         7.5005326227        4.4829867013       23.9621430285
  C         5.9498874608        6.1829379420       25.0807054893
  C         6.9064123059        2.8623739720       25.0985519396
  C         6.3249133699        3.6541644768       27.1274990791
  C         7.3990205277        3.1687111560       23.8164905741
  C         8.0492062800        5.1591640141       22.8470549812
  H         6.3983641039        7.0385666059       24.5198772292
  H         5.7527684449        6.4561554027       26.1976854937
  C         4.7222030011        5.6010253506       24.4135992836
  S         6.5133777835        1.3817664770       25.8872268436
  C         6.1462192018        2.2739314432       27.3226815444
  H         6.2825624268        4.4402415893       27.8808807345
  C         7.8158793629        2.5030063543       22.7312597838
  H         8.1348874996        6.1860556306       22.8516132658
  C         8.4158181796        4.4765193089       21.7263021903
  H         5.1102324658        5.3271992440       23.4257613427
  H         4.3295416088        4.6833766163       24.8391028096
  C         3.5632658175        6.5024946561       24.2661417737
  C         5.8364403741        1.6232593927       28.6595787049
  C         8.4045439508        3.1246192113       21.6352100226
  H         7.7202376678        1.4422408006       22.7294723896
  C         8.9618308761        4.8487481644       20.4871293538
  H         2.8774353465        6.0169730672       23.5828702050
  H         3.9019314753        7.4733279972       23.9136089010
  C         2.8249195867        6.7348310926       25.6046205487
  C         5.7512294515        0.2957448014       28.9258025355
  C         5.5035685915        2.5048468260       29.7873886333
  C         8.6927081785        2.4657472086       20.3484315838
  C         9.0943995555        3.7516894130       19.6502060484
  S         9.5310590536        6.2992286487       19.7600111519
  H         2.0378450145        7.4615143794       25.4605466476
  H         3.4939590427        7.2052252396       26.3164721056
  C         2.2750313751        5.4821004275       26.3411687447
  N         5.9592768980       -0.7108433619       27.9679775573
  C         5.5570565631       -0.2261104897       30.1964376086
  C         5.1883913884        2.0398915343       31.0822847267
  H         5.4758022803        3.5578946830       29.6602761160
  C         7.5993052190        1.6907717981       19.5972402566
  C         9.9139035213        1.6303379504       20.5357434425
  C         9.5406586504        4.0886735035       18.3822378329
  C         9.7655279449        5.4376120379       18.2222403168
  H         1.5408165668        4.9352980922       25.6368425689
  H         3.0591036887        4.7957800017       26.6258097863
  C         1.4877735701        5.8427741174       27.6256638999
  S         6.0391836493       -2.1891828963       28.6629795272
  N         5.6653697255       -1.6491171349       30.1396103939
  C         5.2768606799        0.5705601030       31.3393804176
  H         5.0910733963        2.7541284665       31.9249687440
  H         7.1303924558        0.9968715714       20.2683578523
  H         8.0930336968        1.1796524869       18.7552774541
  C         6.4466731801        2.6238863410       19.1529180375
  H        10.2673073746        1.3703631513       19.4922384305
  H         9.6135577915        0.7460388634       21.0091605935
  C        11.1423298005        2.2973869846       21.1313361795
  H         9.8284548749        3.3744201930       17.6725508339
  C        10.1155328285        6.0758612626       16.9262479627
  H         0.5822072594        5.2675797777       27.5627552785
  H         1.0435045589        6.8277064380       27.6052295966
  C         2.2721960236        5.5630815364       28.9604648475
  C         5.1307821573       -0.0766584145       32.6252333894
  H         6.6927190906        3.5276976789       18.5219915902
  H         6.1457622954        3.0851633729       20.0166451809
  C         5.2957495867        1.7902039590       18.5663464752
  H        10.9549948846        2.6319735901       22.1021366207
  H        11.5158918550        3.1867953037       20.6507378600
  C        12.4045263521        1.3321783918       21.0887173732
  C        10.2135391267        7.4510168811       16.8479562624
  C        10.3246949413        5.2548568141       15.7230690923
  H         2.2471162012        4.4924385763       29.0547834043
  H         3.3171821312        5.8286563552       29.0140116234
  C         1.3836622655        6.0742608786       30.1355443043
  H         5.4300646637       -1.1065674177       32.6665696838
  C         4.7112695446        0.4285684649       33.8838949570
  H         4.8502936295        1.1857779328       19.3480467311
  H         5.7404279054        1.0565123649       17.8674936678
  C         4.2854834044        2.6630577809       17.8240479992
  H        12.3969034857        0.7269656379       22.0061836690
  H        12.1609746992        0.6283836902       20.2421731246
  C        13.7711519291        2.0211952450       20.8095526020
  N         9.9321409651        8.3965294984       17.8591301964
  C        10.4688507661        8.1032212397       15.6597142395
  C        10.6531801014        5.9273062669       14.4582116520
  H        10.2132219144        4.1903064022       15.7750227334
  H         1.8438930837        6.7535031332       30.8730981800
  H         0.4066664250        6.4225571606       29.8243123076
  H         1.0939226955        5.2270167355       30.6450736433
  S         4.4278154442        2.0410636470       34.2969212223
  C         4.5055545564       -0.5567641002       35.0021191808
  H         4.3343698295        3.6004764894       18.3056026749
  H         4.7205805870        2.7978329213       16.8657757683
  C         2.7726091784        2.2319094658       17.7898051606
  H        13.6209235864        2.6574108721       19.8826930021
  H        14.3831242239        1.1769440136       20.4324099088
  C        14.3068016432        2.7528102169       22.0628862577
  S        10.2595926103        9.8731906520       17.3669622911
  N        10.4616921053        9.4863963249       15.7976910295
  C        10.7533191717        7.3871735948       14.4080309602
  H        10.9580244259        5.3028310418       13.6779088445
  C         4.0827203563        1.5142678466       35.9430917432
  N         4.0639948167        0.1560160022       36.0454215848
  O         4.6409423584       -1.7727175262       34.9767886448
  H         2.3929894180        2.9878279483       17.1266506479
  H         2.3062206496        2.4187601627       18.7742568443
  C         2.5917668684        0.7958586860       17.3341717999
  H        14.8040343595        3.7133220637       21.9471913425
  H        13.4237763915        3.0776743853       22.5830118379
  C        15.1068144559        1.8004821079       23.0133890408
  C        11.0299163478        8.2532120819       13.2865200130
  S         3.3980126584        2.5184541695       37.2656693419
  C         3.8400296531       -0.5632422720       37.3465266916
  H         2.1151201024        0.6357671800       16.3927972356
  H         3.5646059957        0.3357066887       17.1754655497
  C         1.9072810586       -0.1304822161       18.3915221023
  H        14.9918703155        0.8039522710       22.5840972489
  H        14.5195330291        1.7473400820       23.8764143349
  C        16.5368120270        2.1010242500       23.2750257903
  H        10.8318838903        9.2937078131       13.4365490285
  C        11.5537358515        8.0567024462       11.9870794223
  H         3.0208777156        0.0450522080       37.8678504337
  H         3.3372313511       -1.4776511931       37.1801482151
  C         5.1183976631       -0.6802570126       38.2284088176
  H         0.8571001878        0.0965274988       18.2843713523
  H         2.3091022553        0.1806423657       19.3375981624
  C         2.1206108930       -1.7166041302       18.3477109807
  H        16.6835537470        3.0020570284       23.7737132288
  H        17.0507232142        1.2899890923       23.7591268255
  C        17.3878383693        2.2379293543       22.0610731709
  S        12.2044774230        6.5590721429       11.5151600780
  C        11.8510126772        9.2338792496       11.1519095592
  H         5.9259795226       -0.0798510968       37.8870900986
  H         4.8975462782       -0.5187318275       39.2259746683
  H         5.4816629312       -1.7803826804       38.1442398104
  H         2.2684842787       -2.1358968178       17.3792639373
  H         1.3041039271       -2.1602674216       18.8771184498
  H         3.0316290151       -1.9581124681       18.8721478701
  H        17.5936402260        3.2921613917       21.9643370171
  H        16.8948441445        1.9226264431       21.1505414631
  H        18.3061645987        1.6999086651       22.1284659371
  C        12.5846701516        7.3955408502       10.0251003144
  N        12.4368096930        8.7558842259       10.0494579228
  O        11.4212767743       10.3980894687       11.3453791207
  S        12.9871762409        6.7246797754        8.5088371262
  C        12.4032592313        9.6968268904        8.8782177257
  H        12.6416759067       10.6884155988        9.2410623991
  H        13.2804292162        9.4717871348        8.2007891059
  C        11.1439585602        9.6279759226        7.9916099433
  H        11.1447754804        8.5394904232        7.5670354397
  H        10.2363167389        9.8725791856        8.5825246984
  H        11.1370333745       10.3625108610        7.1713527116
  H        22.7074717517       11.8284250355        3.1477777686
  C        22.2395634990       11.0680175000        3.7509027957
  H        21.2156340970       11.3383467894        3.9307930984
  C        22.8946394705       10.7311206592        5.0968655916
  C        22.2804249454        9.8187951262        2.8573917975
  C        22.0498006383       10.7456973109        6.3308974934
  H        23.3292069384        9.7615572868        5.1055551722
  H        23.6446517002       11.5194540554        5.3801725430
  H        21.9296946905        8.9282141066        3.4017346543
  H        23.2946641123        9.6322140226        2.6491415364
  H        21.7031707790       10.0651315966        1.9899118716
  C        21.1285914799        9.5152449859        6.3980014745
  H        22.6461522159       11.0261549193        7.2360167133
  H        21.3433081486       11.6016679416        6.1654821877
  C        20.0310232394        9.5833810123        7.4388722765
  H        21.7104553322        8.6859682717        6.5892400881
  H        20.5511819796        9.2701880783        5.4747943579
  C        18.8582317633       10.4804542982        7.0511984459
  H        20.4107277187        9.8678882279        8.3832204294
  H        19.6155949882        8.5747132981        7.6200396237
  C        17.5167221081        9.7177829658        6.7811415612
  H        18.6872078077       11.2252813180        7.7862930492
  H        19.1096292102       10.9442871248        6.1305288505
  C        16.2630178824       10.6020528881        6.6640847536
  H        17.3896674442        8.9566529122        7.6231266311
  H        17.6189217944        9.1304714188        5.8382496739
  C        16.6023924947       11.9539741208        5.9759064720
  C        15.9924154747       11.3330232079        7.9887307380
  C        15.0839588494        9.8856745602        5.9418622108
  C        16.5881906303       13.0152289917        6.8988643302
  C        16.9544575539       12.4253896114        4.7043287554
  C        16.0824008328       12.6488079158        8.0918214725
  C        15.7076274047       10.6403359373        9.1957040966
  H        15.5481883088        9.3530877729        5.1145594036
  H        14.8426816606        9.0228699267        6.5554429829
  C        14.0087978000       10.8632159029        5.4836735552
  S        16.9568482830       14.5124955187        6.1528580391
  C        17.2412488926       13.7404212855        4.6666524975
  H        17.0830539808       11.6989355601        3.9391673059
  C        15.8496081786       13.2356581569        9.2917312687
  H        15.5653157714        9.5587510218        9.1405682577
  C        15.4729236120       11.2959234639       10.3872833201
  H        14.3397724440       11.5807200271        4.7574385626
  H        13.7402498503       11.4756695637        6.3483061028
  C        12.7654265039       10.2176443795        4.8961694265
  C        17.7924679236       14.4612050318        3.4583875738
  C        15.4837593451       12.6092105248       10.5067750024
  H        15.8960286154       14.3239423214        9.3335732143
  C        15.1295861062       10.8961323396       11.6277862303
  H        11.8821413796       10.8413807166        4.9737123109
  H        12.5644203826        9.2858555382        5.5188630639
  C        13.1190826874        9.6959378626        3.4936524908
  C        17.8909955612       15.8998556183        3.3655509183
  C        18.2178765030       13.6938455700        2.2508208664
  C        15.2182546193       13.3440031058       11.7643108199
  C        14.9552320945       11.9817723066       12.4694661000
  S        14.8976266040        9.4420322281       12.3950130977
  H        13.5560303307        8.7256755268        3.6151739607
  H        13.8189425588       10.4371628303        3.1190400134
  C        11.9832968807        9.6717990590        2.5316691050
  N        17.4463964086       16.8325679719        4.3541324393
  C        18.1927039158       16.5865722452        2.2167654175
  C        18.6045673495       14.3937122321        1.1209391797
  H        18.2922567208       12.6185609916        2.2088477166
  C        13.9417445658       14.2274790472       11.6665986855
  C        16.4217058628       14.1862988712       12.3398481902
  C        14.5293996421       11.5818254148       13.6947989082
  C        14.3969619276       10.2395029781       13.8443773688
  H        11.2405571485        8.9601959364        2.9188139490
  H        11.4978619201       10.6292457654        2.6734574409
  C        12.1899547034        9.3471959507        1.0623506183
  S        17.5606864599       18.3129697723        3.7437174214
  N        18.0594664724       18.0050346585        2.3012287369
  C        18.4763311452       15.8800927589        1.0271711436
  H        19.0589109767       13.8514095478        0.2606632938
  H        14.0944986144       15.1105690363       11.1042493576
  H        13.7637411756       14.5451796685       12.6314344979
  C        12.6022312509       13.5213894016       11.1841706121
  H        16.6483603721       15.0324928664       11.5943695687
  H        15.9069451156       14.8001319976       13.0697486947
  C        17.5862738420       13.4408703866       12.8546961046
  H        14.3780728884       12.3896271568       14.4385348137
  C        14.1314166691        9.5030487537       15.1084320631
  H        11.2613465957        9.1980124326        0.4763813288
  H        12.6647435776        8.3237748838        1.0670047998
  C        13.2615474422       10.1178383468        0.2644143665
  C        18.7208752501       16.5844739203       -0.1727145364
  H        12.6125429261       12.9777655258       10.2302633553
  H        12.3992277028       12.6395508991       11.8110985654
  C        11.3243736613       14.3908419535       11.0313704956
  H        17.8630740818       12.5564978872       12.1983970599
  H        17.2983724746       13.0040034725       13.8045960729
  C        18.9022461499       14.2984666211       13.0075722886
  C        14.0394767654        8.0834245351       15.2797267477
  C        13.9485177693       10.3142689256       16.3532720496
  H        13.5942690172       11.0000893034        0.7748671505
  H        14.1553285279        9.4256614946        0.1705191007
  C        12.6862394830       10.3286652514       -1.0660187407
  H        18.7664144172       17.6809692092       -0.0630607325
  C        19.0356672596       16.1848091496       -1.4393204689
  H        11.3433492043       15.1219851273       10.2722204866
  H        11.3046008025       14.9062009929       12.0035529484
  C        10.1894891408       13.4408842539       10.7578746423
  H        19.3451385759       14.4899927663       12.0052671854
  H        18.6133235667       15.1970653999       13.4234016253
  C        20.0288954358       13.6419655777       13.8583883065
  N        14.2973136762        7.1415607855       14.2611439607
  C        13.6635900252        7.4618485145       16.4245004856
  C        13.7054535912        9.6152329661       17.5157229205
  H        14.1221824025       11.3435862670       16.3609822708
  H        11.7900296026       10.9366810563       -1.0194425440
  H        12.4338832192        9.4256855989       -1.5559069230
  H        13.4469955606       10.7990520572       -1.6484556518
  S        19.2799798138       14.5840401134       -2.0678153394
  C        19.2128820052       17.2745712015       -2.4671858673
  H        10.4262063942       12.7894948269        9.8820926030
  H        10.0860604488       12.7518976230       11.5484714802
  C         8.8441793473       14.0639700387       10.4159965016
  H        20.1199452028       12.6717307737       13.5595653909
  H        19.6638124817       13.6176968869       14.8589273306
  C        21.2537863720       14.5620782952       13.8574827470
  S        13.9549055388        5.6241745070       14.8664718119
  N        13.5511600804        6.0408415985       16.3286338636
  C        13.4476228643        8.1597390850       17.5909881980
  H        13.6982211190       10.1345041388       18.5122331589
  C        19.5635580659       15.3403025629       -3.6042449018
  N        19.6397051977       16.6728622163       -3.6241745027
  O        19.0112892236       18.4999606285       -2.2639225812
  H         8.2772813608       14.2231471081       11.3049636689
  H         8.9880393025       15.1213363808       10.1197429067
  C         8.0788682590       13.3821247346        9.2921560061
  H        22.2238229260       14.1059871971       13.7622606811
  H        21.1362573484       15.1868105226       12.9984760527
  C        21.2502106515       15.6135220198       14.9088184302
  C        13.2012064987        7.4392351282       18.8369924325
  S        19.8464989864       14.4943858734       -5.1003873093
  C        19.7882139613       17.4449771468       -4.8765253334
  H         8.6709288376       13.3214371176        8.4206156458
  H         7.9266599539       12.3795510275        9.5288966008
  C         6.7903238306       14.1242363624        8.8866849495
  H        22.1005495498       15.4883678362       15.6126534047
  H        20.3425775113       15.6662264756       15.5449385677
  C        21.6626109159       17.0512701428       14.5248723694
  H        13.4477861923        6.3678972670       18.8421449963
  C        12.6292696270        7.8828449125       20.0207519140
  H        20.5829714211       17.0212884556       -5.4394338603
  H        20.0828279335       18.5465778461       -4.6389194393
  C        18.3943236358       17.4969299603       -5.6191086921
  H         6.5520415499       13.7365601921        7.9088337886
  H         6.8919983318       15.1367598845        8.7541160463
  C         5.5772772384       13.8717859458        9.8107856186
  H        22.6124443485       17.0882539145       14.0185654546
  H        21.0064787803       17.4575590648       13.7933272117
  C        21.6533575780       17.9358732930       15.6833871476
  S        12.2507841723        9.5014981780       20.4134457254
  C        12.5227168254        6.8846514626       21.0902581985
  H        18.3424822544       16.6715369379       -6.3537119802
  H        18.5360725330       18.4093527924       -6.1783074336
  H        17.6752560890       17.6101883949       -4.8608543325
  H         5.8330868174       14.2602024691       10.7383702343
  H         4.7272301397       14.3271658503        9.3478659053
  H         5.4624429798       12.7904909483        9.9236780901
  H        20.6418675573       18.2364548536       15.8865176538
  H        22.1253331723       17.6187354381       16.5888227543
  H        22.1874079528       18.9063371152       15.4352219888
  C        11.8702235836        8.7951718545       22.0210891545
  N        12.0664149674        7.4840750698       22.1733624961
  O        12.9835262910        5.6622710134       20.9141018119
  S        11.1565288530        9.6339154297       23.4053657024
  C        11.9627964405        6.7447599661       23.3976832088
  H        11.9064663325        5.6633985728       23.1484895815
  H        11.0425383841        6.9611929836       23.9574810053
  C        13.1383295634        6.9506505399       24.3136572651
  H        13.2072106275        7.9200469897       24.8610446495
  H        14.0530699144        6.8385103576       23.6711193074
  H        13.2169466590        6.2179806739       25.1297439274
