352
 i =    99700, time =    99700.000, E =        25.2892752500
  H        10.1975006312        4.6108406936       31.7761284197
  C        10.4774999653        5.6322070886       32.2710690938
  H         9.6195211739        6.2276797445       32.6196207188
  C        11.2099099044        6.4520813143       31.2185929148
  C        11.3197702407        5.2333668835       33.4896320011
  C        11.7446258446        5.5832924915       30.0353334185
  H        10.5168185572        7.2098576209       30.8882025929
  H        11.9074883792        7.0717090408       31.7898318476
  H        10.9156612153        4.4935201494       34.0911935822
  H        12.2887988929        4.7314276631       33.2354869322
  H        11.7412951920        6.1071309042       34.0091931552
  C        10.7487336751        4.9096384126       29.1472598382
  H        12.2950481645        4.7979384484       30.4813639196
  H        12.4972815792        6.0359150851       29.4104866748
  C        10.1427439904        5.9898260097       28.2430134426
  H        11.1656532981        4.1352442957       28.5211242325
  H         9.9415889800        4.4241707113       29.8263877302
  C         9.5664021877        5.3026409466       26.9810415810
  H        11.0543269730        6.6039469187       28.0393954176
  H         9.3830165281        6.5452296829       28.7639554902
  C         8.4742267874        6.0749505011       26.2862773778
  H        10.3785975134        4.9507004981       26.3030043577
  H         9.1832285168        4.3580604180       27.3710678796
  C         7.3830677551        5.2657300174       25.5242881044
  H         7.8769633064        6.8597167571       26.7711275287
  H         8.9278286716        6.7354530668       25.5799631984
  C         6.9664540548        3.9419243346       26.2080980629
  C         7.9584623356        4.5178085384       24.3604591149
  C         6.1885227389        6.0873315704       25.1062487499
  C         7.3883041428        2.8275652105       25.5680755105
  C         6.5967980388        3.5966399887       27.5138689821
  C         7.9277079949        3.1821913294       24.3348829057
  C         8.3850865491        5.1173536534       23.2111269988
  H         5.5766773287        5.6852053420       24.2529583813
  H         6.4928676589        7.0121031471       24.7569771317
  C         5.2297394409        6.5769412947       26.1419349043
  S         6.8976977084        1.3560905438       26.3311040981
  C         6.4328452470        2.1983673972       27.6762349814
  H         6.5839845934        4.3777355823       28.3441357467
  C         8.2714818231        2.4796021143       23.1580065059
  H         8.4847564545        6.1704749633       23.1541904036
  C         8.7264234891        4.4430055056       22.0850174578
  H         5.2723529353        6.1072850298       27.1266377792
  H         5.6365640004        7.5649705653       26.4088134033
  C         3.6419534308        6.5552450230       25.6741073756
  C         6.0978432631        1.5750089733       29.0004343663
  C         8.7646704220        3.0984999417       22.0306425947
  H         8.2473186245        1.4099345518       23.2144861906
  C         9.1832540447        4.8282023227       20.8743055629
  H         3.3444994878        5.6719161336       25.1872583285
  H         3.4626395297        7.3961336898       25.0147830571
  C         2.7173365546        6.4614878200       26.9239012510
  C         6.0604377582        0.2077752038       29.2532471037
  C         5.6785413632        2.4940873656       30.0937926007
  C         9.1119460066        2.3697276923       20.7820851556
  C         9.3609121046        3.7369029924       20.0536651503
  S         9.4284055077        6.2561622790       20.0952139185
  H         1.7678897213        6.9819329858       26.6550865823
  H         3.1216341879        7.1196281917       27.7550363792
  C         2.5943362579        5.0635127333       27.6088143988
  N         6.4113776244       -0.7134284033       28.3159453889
  C         5.8255908728       -0.3304007232       30.4886481096
  C         5.3165380347        1.9647165928       31.3539701369
  H         5.4813883744        3.5301810498       29.8957934592
  C         7.8641617800        1.6303206889       20.1973643741
  C        10.3958387389        1.4828578943       20.8666762896
  C         9.6628622579        4.1115759236       18.7729717631
  C         9.6715639581        5.4685558257       18.6099099905
  H         2.4143131572        4.3772873427       26.7804545126
  H         3.5233451999        4.7115201397       28.0093137133
  C         1.4346037932        4.9781743983       28.5421913668
  S         6.3515071002       -2.1730132779       28.9677236146
  N         5.9852173352       -1.7420060056       30.4708520147
  C         5.4981664647        0.4542003367       31.5899717017
  H         4.9208409627        2.5726287903       32.1505744404
  H         7.4811596906        0.9408405154       20.9249757236
  H         8.2229283900        0.9951740167       19.3331890252
  C         6.6858180418        2.6094623628       19.8371615500
  H        10.5499966460        0.9983230849       19.8849225460
  H        10.1009927109        0.7239899966       21.4515298889
  C        11.5922535690        2.2635888968       21.3664298764
  H         9.6750368873        3.3909874047       17.9289295318
  C        10.0872626936        6.2556635882       17.4329411924
  H         1.1483662135        3.9520657298       28.7627887865
  H         0.6778803025        5.4675341715       27.9947029702
  C         1.6229648650        5.7903281667       29.8687109054
  C         5.3475922952       -0.2709115476       32.8111202855
  H         7.0663423149        3.2623475091       19.0192251522
  H         6.2421373262        3.2694633850       20.5587898756
  C         5.4926442251        1.8086185548       19.2674509948
  H        11.6030452863        2.6273644908       22.3946362491
  H        11.9232307209        3.0226299223       20.6268719000
  C        12.9105140327        1.4105523354       21.3802780271
  C        10.0789271237        7.6528078421       17.3426125077
  C        10.4075346538        5.5252243163       16.1312052527
  H         1.4849403740        6.8596991312       29.7017970295
  H         0.7262042730        5.5188345109       30.4585453072
  C         2.8891011904        5.5052771072       30.7249603894
  H         5.8193197687       -1.2583001392       32.8165567060
  C         4.9381797567        0.0981002621       34.0678594081
  H         5.1581996756        1.1886040376       20.0068956629
  H         5.7844256380        1.2128399762       18.4498494930
  C         4.3368165044        2.7109887477       18.8471331785
  H        12.7935788913        0.5353512721       22.0570688825
  H        13.1249962803        0.8274151138       20.5334739321
  C        14.1835760196        2.2922313270       21.7035462770
  N        10.0771782047        8.6603239001       18.4139992548
  C        10.3620760112        8.3225107687       16.0992631564
  C        10.8984865068        6.1997715268       15.0079103058
  H        10.4905949437        4.4520685003       16.1979015788
  H         2.8706468377        4.4843928834       31.0978928117
  H         3.8251929383        5.5841411910       30.1141599978
  H         3.0643631558        6.0453319622       31.6167655997
  S         4.5295948951        1.7083759031       34.5729017507
  C         4.9055646945       -0.8969982093       35.1207042501
  H         3.6686180446        3.0115195998       19.6335788409
  H         4.7857979674        3.6621497560       18.3909609298
  C         3.4910879161        1.9342828557       17.7757752321
  H        13.7590523231        3.1764982619       22.2273082400
  H        14.7111252541        2.6409706100       20.8396930653
  C        15.2060330313        1.6268865082       22.6951518844
  S         9.9022290036       10.1343898045       17.7430605590
  N        10.2779753276        9.7259087917       16.2379062810
  C        10.7814430478        7.6941085163       14.9274807913
  H        11.0432610279        5.6866070005       14.0772217611
  C         4.2289130530        0.9191838564       36.1466835268
  N         4.4718480359       -0.4024450000       36.1949571471
  O         5.2913079313       -2.0778172810       34.9828632882
  H         4.1915936278        1.6409993037       16.9988498924
  H         2.8178381545        2.6747096986       17.3050512660
  C         2.8276809097        0.7420250005       18.3845494709
  H        14.6144349521        0.8671469518       23.2429122175
  H        15.8231598878        0.9755193990       22.1335703412
  C        15.9117069793        2.7314430934       23.5592088540
  C        11.0978996281        8.5462809525       13.7948842351
  S         3.6360724897        1.6422161329       37.6719356123
  C         4.2669899988       -1.3053935929       37.3612392561
  H         3.5106094244       -0.0903018873       18.5061500088
  H         2.3391730228        1.0056140773       19.2958142976
  C         1.7648774229        0.2277801762       17.5514614969
  H        15.2277169004        3.0308888873       24.3136553288
  H        16.0709007109        3.6544773783       23.0641190663
  C        17.1956940372        2.1729628009       24.2859733588
  H        11.0076089526        9.6654136133       13.8084681344
  C        11.6804503042        8.2333750040       12.5747632997
  H         3.6079498860       -0.7877146263       38.1577794907
  H         3.6476961551       -2.0327056606       36.9195683323
  C         5.5876287870       -1.7510929184       38.0814737210
  H         1.1135933888        1.0021192123       17.4194478024
  H         1.2713727477       -0.5859170260       18.1154530682
  C         2.2647739856       -0.3180176904       16.1913204219
  H        17.3159259130        2.7705731216       25.2264864840
  H        16.9021302178        1.1830607050       24.6633517418
  C        18.3681411952        2.1727611105       23.3121877589
  S        11.9992477224        6.6631696118       12.0288515772
  C        11.6797664932        9.2514243074       11.4922219569
  H         5.6450891200       -2.8076156291       38.2535658063
  H         6.4890420591       -1.4186222762       37.5985253614
  H         5.5494982180       -1.2415467207       38.9960167770
  H         1.8769858602       -1.3104718336       15.9589974122
  H         3.3832504299       -0.3396210690       16.2023547689
  H         1.8764313028        0.2069765520       15.3341237655
  H        19.1310923918        2.8097181361       23.7040454831
  H        18.0883299252        2.5257627940       22.3545797922
  H        18.6100486780        1.1411123573       23.2518377258
  C        12.3571829892        7.3993266895       10.4688278020
  N        12.1678805737        8.7251831718       10.3482838677
  O        11.2600700435       10.4233970021       11.5975655205
  S        12.9494006433        6.4766893651        9.0417699121
  C        12.2465444546        9.4674521496        9.1157036901
  H        12.6834010017       10.4336118135        9.4340039365
  H        12.9556382982        9.1340304453        8.3575849627
  C        10.8747054461        9.6334005941        8.4040931709
  H        10.1267243045       10.1370887945        8.9717224434
  H        10.9486456201       10.1607077145        7.4641425580
  H        10.5475706326        8.6316565950        8.1551093985
  H        21.9136109927       11.3159920364        3.8529661138
  C        22.0258408152       10.2617797555        3.7670111619
  H        21.0089993772        9.8706636321        3.5493300324
  C        22.7066490945        9.7637743784        5.1117284221
  C        22.7598471727        9.7662104383        2.5288477256
  C        21.9829438641       10.1088811067        6.4260911638
  H        22.8791217189        8.7100326571        5.0406392354
  H        23.6345555684       10.2900813236        5.3043149286
  H        22.0738015796        9.2362284868        1.9508316944
  H        23.5910712257        9.0933438380        2.7718693735
  H        23.2283042068       10.6340054201        1.9991659995
  C        20.8879389040        9.1441154226        6.7654423928
  H        22.6334528292       10.0392594013        7.3406171240
  H        21.6150126299       11.1425046569        6.4926897271
  C        20.1797688008        9.4072760624        8.0964791075
  H        21.4097386733        8.1279848445        6.8069156283
  H        20.1680956045        9.1552255103        5.9410551828
  C        19.0411801465       10.2958430070        7.9330036992
  H        20.8053580653        9.7071806137        8.9436256257
  H        19.8453299605        8.4594700689        8.4833057228
  C        17.7286168331        9.6680435004        7.3425756998
  H        18.8344025586       10.9297393672        8.7962793300
  H        19.3489673168       11.0154867292        7.1520610583
  C        16.5957319521       10.6359602799        7.1653721658
  H        17.4371767254        8.9484974802        8.0782491258
  H        18.0125147397        9.0780101368        6.4664055654
  C        17.0016362097       11.9364306797        6.5199289079
  C        16.3410141419       11.4409277023        8.4633535824
  C        15.3438867435        9.9518833699        6.4868438054
  C        16.9110158762       13.0745845947        7.3371446651
  C        17.4117690696       12.3235649527        5.2625983587
  C        16.4533091394       12.8111210234        8.5695332761
  C        15.7917554203       10.8297408232        9.5883907963
  H        15.5986094532        9.6233686353        5.4801559558
  H        15.1756688167        9.0843327734        7.1773195872
  C        14.1128976280       10.9110510705        6.2656524455
  S        17.4321006351       14.5244389537        6.5121402602
  C        17.6601798899       13.6432130768        5.0968230000
  H        17.5483157743       11.4941909950        4.5368694878
  C        16.1731991784       13.3719788762        9.7763116225
  H        15.6165254577        9.7307365220        9.5265541128
  C        15.4562048897       11.4330653066       10.7646528160
  H        14.5038560875       11.8989802290        5.9889496442
  H        13.5585124645       11.0545735177        7.2236309741
  C        12.9997655206       10.4916705371        5.2460120283
  C        18.1711464382       14.3318481821        3.8196327842
  C        15.6707633923       12.7514505061       10.9075798929
  H        16.2822656128       14.4452969840        9.8029783952
  C        14.9965042357       11.0405353861       11.9941759863
  H        12.0440854397       11.0048681308        5.4592406783
  H        12.8404549888        9.4534921905        5.4126219588
  C        13.4045558360       10.9805958492        3.8629105949
  C        18.2926250978       15.7367964350        3.6430272777
  C        18.4424466609       13.4667537744        2.6718885302
  C        15.2735957432       13.4352500818       12.1664656354
  C        14.8912878556       12.1168695598       12.8206725749
  S        14.6473065488        9.5418468614       12.9216649707
  H        14.2726242142       11.5697691320        3.9097058584
  H        12.5556235207       11.7046011410        3.5129081343
  C        13.5623781667        9.8772656784        2.8301726359
  N        17.8178768674       16.6889690428        4.5360359250
  C        18.6399740766       16.2604696969        2.4068341245
  C        18.9892607113       14.0397094575        1.4837911631
  H        18.3209072486       12.4530911511        2.8614062119
  C        13.9767638598       14.3358070385       12.1788107381
  C        16.3441717473       14.2040536524       13.0153251614
  C        14.5150885596       11.7656315400       14.0938396029
  C        14.3530102314       10.4095422617       14.3541406013
  H        14.4215496039        9.2670259499        2.9607178153
  H        12.6883249631        9.1717734880        2.7721106626
  C        13.6363866440       10.4081018962        1.3869952513
  S        17.9526706598       18.1376682688        3.7869325746
  N        18.6482141027       17.6871854939        2.3946042197
  C        19.0165329576       15.5254321520        1.2838335605
  H        19.3670067763       13.2818878712        0.8128977465
  H        14.1581575556       15.3268301167       11.7182714720
  H        13.7224723554       14.6133305874       13.1453217336
  C        12.7549834357       13.7674020776       11.4922429107
  H        16.7951416116       14.9450010702       12.3702248123
  H        15.9003785476       14.7390745438       13.8163537758
  C        17.5327526739       13.3730889027       13.5237322030
  H        14.3948554284       12.5626693245       14.8111764717
  C        14.1375165198        9.6202028386       15.6594741586
  H        14.6551265933       10.0812228169        0.9781354200
  H        13.6839301509       11.4526880045        1.4796642931
  C        12.5575310611        9.9438245739        0.4106588695
  C        19.1987298874       16.2012596579        0.0448816127
  H        13.0362652664       13.4963811402       10.5184958373
  H        12.4103672382       12.9040300914       12.0338713900
  C        11.5644122398       14.7429296438       11.4063466374
  H        17.9170352514       12.7589296706       12.6983483149
  H        17.2348304739       12.6494456119       14.2971380842
  C        18.6586083449       14.1532209487       14.1401212515
  C        14.0581790704        8.1769372985       15.7031488748
  C        13.8827345971       10.2794576030       16.9266733876
  H        12.8101715978        8.8983217517        0.3114062152
  H        11.4597818998       10.0955277085        0.7932392292
  C        12.8530652050       10.4481458793       -1.0224490549
  H        19.0091850265       17.2430588925        0.0310219336
  C        19.3554773066       15.6988013976       -1.2452337655
  H        11.9734676898       15.6431113358       11.0155017154
  H        11.2895676800       14.9676366174       12.4418241669
  C        10.4036077656       14.2866912342       10.5463455877
  H        18.9398040913       14.8139507974       13.3310823485
  H        18.3522106126       14.7810990940       14.9631942802
  C        19.8627197595       13.2768865963       14.4727976746
  N        14.2495083153        7.2677544884       14.7116402093
  C        13.6871872265        7.4800423464       16.9127152195
  C        13.5934826945        9.6082832760       18.1228842858
  H        13.9682521494       11.4183664651       16.9520775247
  H        12.5418093237       11.4944660533       -1.1271525497
  H        12.2270260187       10.0196559595       -1.8470805861
  H        13.9346135287       10.2861770265       -1.1647638613
  S        19.4615406507       13.9934174951       -1.6019289704
  C        19.3802551740       16.6261520456       -2.4541680683
  H         9.8783644771       15.2254163530       10.1504368419
  H        10.7556186613       13.7626152270        9.6243627197
  C         9.4479985119       13.4412554551       11.3073766048
  H        20.1127234807       12.5841024250       13.7078969405
  H        19.7167957587       12.5707201261       15.3322820363
  C        21.0445333614       14.0707385355       14.9597440760
  S        14.1265381834        5.7262464965       15.2458626329
  N        13.5869554343        6.0885916781       16.7536436009
  C        13.3425531611        8.1429911893       18.1156355218
  H        13.5113052098       10.1978918655       19.0322320013
  C        19.6014053287       14.5550825169       -3.3295465610
  N        19.5050532349       15.8897682279       -3.5871573318
  O        19.1316219827       17.8081139210       -2.3029482922
  H         9.8143649759       12.3718162274       11.1439544164
  H         9.5115746731       13.6423473315       12.3721271031
  C         7.9995149760       13.6890018329       10.7803378401
  H        20.6087184119       14.5811645749       15.8882522821
  H        21.8170127072       13.3536126221       15.3906226096
  C        21.5557908986       15.0940527764       14.0174078109
  C        13.0399079265        7.4065298247       19.2918032795
  S        20.0140826604       13.4575720252       -4.6843101777
  C        19.3178365110       16.4055557328       -4.9630843175
  H         7.3816599205       12.9783164169       11.2183830009
  H         7.7624014752       14.7671621918       10.9310258723
  C         7.7766371195       13.3223121890        9.2992811431
  H        21.1830372419       14.9707466008       12.9723995586
  H        22.6279314928       15.0575772596       13.9655405801
  C        21.2558488235       16.5020585623       14.6686794812
  H        13.2400394846        6.3588785337       19.2452130912
  C        12.4555537940        7.7298677668       20.5362401704
  H        19.4183608312       15.7373918488       -5.8542685669
  H        20.1576004712       17.0800778964       -5.0006371543
  C        17.9970979098       17.0990633748       -5.2146771730
  H         7.8217385826       12.2306074422        9.2603662158
  H         8.6334877295       13.7070991176        8.7792318327
  C         6.5077280130       13.9828992068        8.7121833184
  H        21.2852341451       17.2644602472       13.8596064689
  H        20.2655253761       16.6157430765       15.0541218728
  C        22.2980935725       16.8822309471       15.6611453003
  S        12.0913789343        9.1897310515       21.2799058881
  C        12.4139922896        6.5935210837       21.5137610972
  H        17.5206000747       16.8308936610       -6.1743821321
  H        18.1530062701       18.2197454561       -5.1012032472
  H        17.4427176614       16.8156227289       -4.3748221770
  H         5.5815546489       13.8417138071        9.3117328670
  H         6.8000582021       15.0253101530        8.6975588849
  H         6.3977989879       13.4958952380        7.7200407856
  H        22.4103190798       16.2346515394       16.5393065806
  H        23.2225143808       17.0551057244       15.1430402943
  H        21.9912800863       17.9026483561       16.0756952772
  C        11.6971320877        8.3681691716       22.7947743993
  N        11.9463868977        7.0303501290       22.6748840552
  O        12.8249501986        5.4441147509       21.3088845847
  S        11.1843211011        9.0514477737       24.2757686544
  C        11.8928401980        6.0672871090       23.7942310546
  H        11.8276056844        5.0548863166       23.4923454405
  H        11.0492550121        6.3695321303       24.3699609799
  C        13.1818025277        6.2122813966       24.6092503912
  H        13.1817237865        7.0738208248       25.2294746908
  H        14.1197673417        6.1134924342       24.0170177806
  H        13.3787213693        5.4880354447       25.3773098770
