352
 i =    87000, time =    87000.000, E =        25.1605369197
  H        10.3990802652        7.1418704470       31.5761594170
  C        11.4333336179        6.9551111942       31.8928973957
  H        11.9938855788        7.9135003792       32.0309992983
  C        12.1329381060        6.0881919221       30.7717291787
  C        11.2111748401        6.1362441688       33.2005646270
  C        11.1019822245        5.0632087028       30.1899508755
  H        12.4725134563        6.8062371954       29.9773486277
  H        12.9247130493        5.5270505657       31.1841374037
  H        10.4148488124        6.4814647128       33.8579698430
  H        11.0024715076        5.0784293633       33.0724179086
  H        12.0315905484        6.1969331241       33.8764589120
  C        10.2311032439        5.6115071308       29.0150447237
  H        10.3720459361        4.6166440075       30.9032371690
  H        11.6112432081        4.2190201328       29.7569506891
  C        10.8933108221        5.6639902844       27.5902280249
  H         9.3620113106        5.0293557065       29.0181079348
  H         9.8506307183        6.6111668396       29.3124007359
  C        10.0891331982        4.8971729633       26.5788150166
  H        11.7816378013        5.0734648813       27.6599183710
  H        11.2095620455        6.6534327680       27.3337024094
  C         8.8505930492        5.7415805406       26.3613074762
  H        10.6707308121        4.8342789399       25.6271720560
  H         9.7470118496        3.9053502842       26.7965751993
  C         7.5859503812        5.0414710454       25.7166562174
  H         8.5201529582        6.1137626810       27.3527541503
  H         9.1471666390        6.7163404081       25.9601536297
  C         7.0976369399        3.7303398515       26.3205402861
  C         7.9282537206        4.3110023413       24.4523155271
  C         6.5011631415        6.0891362843       25.3392093119
  C         7.2056386164        2.6577452110       25.4612521904
  C         6.7148697900        3.3633465327       27.6261077298
  C         7.7045432582        2.9899611121       24.2370075362
  C         8.4524713695        4.9820190362       23.3553564800
  H         5.9791888821        5.7376543901       24.4441484364
  H         7.0198581050        7.0348674873       25.1395691818
  C         5.4395541941        6.2453972713       26.3691534613
  S         6.8782198504        1.1402281469       26.2034184916
  C         6.6530929818        1.9875210827       27.7773146246
  H         6.6666523556        4.1396101933       28.4005738118
  C         7.9895233160        2.3657487641       23.0888683884
  H         8.7351365290        5.9720963773       23.3702403751
  C         8.6998534753        4.3377858395       22.1398412156
  H         5.5461445176        5.7993334554       27.3073206172
  H         5.3449724801        7.2197554480       26.6156229717
  C         4.0829776004        5.7934360841       25.7391945908
  C         6.1240980653        1.2889365938       29.0305318243
  C         8.4476228490        3.0208924872       21.9961943434
  H         7.7416608791        1.3083413633       22.9274233955
  C         8.9914991587        4.7707578988       20.8994856391
  H         4.1966037074        4.8129129887       25.2890215504
  H         3.9461963870        6.5675175014       24.9661486324
  C         2.8544367295        5.7526448506       26.6464869636
  C         6.0144966455       -0.1307141073       29.2409953258
  C         5.7388831408        2.2133194782       30.1544515693
  C         8.8417821999        2.3783606434       20.6357179146
  C         9.1776687774        3.7358252166       19.9790011469
  S         9.4159847787        6.3657297216       20.2991966577
  H         1.9366473536        6.0101252411       26.0144449521
  H         2.8806551543        6.5481176838       27.3437196382
  C         2.6604321898        4.4224621614       27.4284872630
  N         6.2615897070       -1.1488694232       28.3750250249
  C         5.6991856742       -0.5849047581       30.5413930897
  C         5.3177158094        1.7066776415       31.3507619547
  H         5.8427781201        3.3047352645       30.0775056364
  C         7.7467447386        1.6838848059       19.7860640001
  C        10.1211573326        1.5374607686       20.8882664319
  C         9.6159628875        4.2740534539       18.7895990742
  C         9.7848734153        5.6239090108       18.7924910740
  H         2.2233926566        3.7400819790       26.6578620473
  H         3.4687247565        4.1177674075       27.9410282234
  C         1.5493370263        4.6300126877       28.5427653219
  S         6.1957548298       -2.5477444458       29.1859243977
  N         5.8365424862       -1.9419209742       30.6367351931
  C         5.3950051633        0.2235411372       31.6377451246
  H         5.0735848914        2.4080507899       32.1401557095
  H         7.3954731997        0.7107040559       20.1855002218
  H         8.2726052647        1.5176347835       18.8693211694
  C         6.5854153739        2.6461951688       19.5584746888
  H        10.3830357619        1.5175078290       19.8611452733
  H        10.0949526378        0.5476421631       21.2900809258
  C        11.2973972938        2.2163894001       21.6187556531
  H         9.6635364665        3.6924882857       17.9008975946
  C        10.1071947620        6.4472111836       17.5731088283
  H         1.1332939918        3.6390464552       28.8333967166
  H         0.7071604119        5.0599945812       28.0223182492
  C         1.8271045351        5.4956079260       29.7444413894
  C         5.1338910876       -0.4304445357       32.8987003929
  H         6.9056009493        3.2455474554       18.7466039110
  H         6.3447327137        3.2473451144       20.3868602261
  C         5.3546885628        1.9439222740       18.9966176738
  H        11.0473026179        2.2906990767       22.6399137038
  H        11.4746729748        3.2003261822       21.2718774054
  C        12.5921559191        1.3729461835       21.5287802270
  C        10.1228772527        7.8595724269       17.3637178193
  C        10.3061865184        5.6576683899       16.3210270109
  H         2.6951683793        6.1404995960       29.5782463108
  H         1.0081045787        6.1863550114       29.9039259686
  C         2.3225193036        4.8654953984       31.0702209334
  H         4.9838216766       -1.4573845966       32.9052353762
  C         4.9598274529        0.1411791214       34.1601519036
  H         5.0148510447        1.2313204283       19.7104087610
  H         5.6535026808        1.2908816891       18.1334257719
  C         4.2323620576        2.8866956662       18.5626112424
  H        12.3983436788        0.4989327309       22.1694406015
  H        12.9103265770        1.0995728012       20.5339458034
  C        13.8260111640        2.1895212350       22.0041175202
  N         9.9124168664        8.7952534144       18.3972171284
  C        10.5110056381        8.4664028009       16.2110271529
  C        10.5432495416        6.2610396298       15.0802132900
  H        10.2418754375        4.5948889149       16.2799912943
  H         2.6935684798        5.6245727722       31.7454915967
  H         1.6096023755        4.1974718350       31.6014093754
  H         3.1975189376        4.3018475622       30.8638826448
  S         4.7236133212        1.7609632457       34.6742779565
  C         4.6487902968       -0.8825192386       35.2302490318
  H         4.1919968305        3.6503941244       19.3161205357
  H         4.4514697606        3.2506163125       17.6133993663
  C         2.8695547188        2.1931836613       18.5221491767
  H        13.5070029015        3.1972735003       22.3371984048
  H        14.4203180503        2.4309701123       21.1374746870
  C        14.6966015254        1.5752507208       23.0449552450
  S        10.2234489831       10.3081246801       17.9004966425
  N        10.6630641113        9.8666281636       16.3989479805
  C        10.6281495401        7.7555394591       14.9936535355
  H        10.8810845978        5.5742890767       14.3148086167
  C         4.2923369385        1.1575285261       36.2754585042
  N         4.4426907911       -0.2293180957       36.3988562977
  O         4.5824799281       -2.1004735381       35.0844526112
  H         2.2254041799        2.9772483433       18.0778508419
  H         2.5181258040        2.1482188405       19.6072231155
  C         2.7799575022        0.8452792490       17.7851526859
  H        14.1725002952        1.4817566196       23.9609790516
  H        14.9216748061        0.6399785467       22.6907231009
  C        15.9228915317        2.4642287424       23.3161269110
  C        10.8532470537        8.5861564236       13.8375514373
  S         3.8678887068        2.1334118584       37.6742666520
  C         4.2867098889       -0.9343227530       37.6977468722
  H         1.9673292034        0.9452433576       17.1062416885
  H         3.4745113119        0.6634286842       16.9632254915
  C         2.6349165704       -0.4649089947       18.5803460083
  H        15.7020884247        3.2815177691       23.9628476746
  H        16.2340320978        2.8411196097       22.3532789932
  C        17.1125112904        1.7256684022       23.8449554565
  H        10.5653341436        9.6608746158       13.8327021815
  C        11.3218157663        8.2996101911       12.6215749099
  H         4.3590498472       -0.2554237674       38.5657542327
  H         3.4305832786       -1.3778108310       37.8957358808
  C         5.5240994875       -1.7339189562       37.9064288643
  H         1.8251221714       -0.3474559580       19.2775098498
  H         3.4622629796       -0.5238271306       19.3075301851
  C         2.2941685232       -1.7591997020       17.7878507865
  H        17.5200559936        2.2675531012       24.7771039653
  H        16.7720820382        0.7981628939       24.2468748381
  C        18.2300307945        1.5699194570       22.8406635589
  S        11.6843846716        6.7683228455       11.9392525444
  C        11.5603096460        9.4212938809       11.6938154835
  H         5.9358204078       -1.6654677340       38.8996882209
  H         5.3821985864       -2.8413054081       37.7284279778
  H         6.2913799206       -1.4175218110       37.1396989713
  H         2.3885544847       -2.6625281515       18.4641727887
  H         3.0687289186       -1.7918335396       17.0474130222
  H         1.2699599001       -1.7822193550       17.4100671354
  H        18.6466524268        2.5569196980       22.4378633341
  H        17.9522181632        0.8994790627       22.0502014899
  H        19.1125289147        1.1088710268       23.3049348350
  C        12.3237270921        7.6041577360       10.5187372428
  N        12.2447474942        8.9661997881       10.5726049970
  O        11.2185227109       10.5844710465       11.8926149202
  S        12.9431610762        6.8587165801        9.0462612650
  C        12.5469803702        9.8045356946        9.5166030158
  H        13.0073956821       10.7647672054        9.7645448768
  H        13.3597732014        9.4054065539        8.8683801688
  C        11.3467058475       10.1177490921        8.5833262096
  H        10.4566568051       10.4914869317        9.1077652328
  H        11.5429811696       10.9072065634        7.7771365066
  H        11.2421492845        9.1874429939        7.9434417692
  H        21.0465428541       11.4637820633        3.3719112653
  C        21.4991612397       10.4671906845        3.4765206787
  H        20.7641464346        9.6382454275        3.5029944546
  C        22.5708999018       10.4728683954        4.6190627665
  C        22.2125673787       10.3536450139        2.1304117302
  C        21.9087838793       10.3424345819        6.0248304380
  H        23.3893563156        9.7015442549        4.5127183974
  H        23.1613373384       11.3897260102        4.4991928612
  H        23.0226357428       11.0847702776        2.0055718826
  H        21.6251845383       10.4983066237        1.2361604909
  H        22.7853562133        9.3886187113        2.0670979151
  C        21.4789590849        8.9983827835        6.4650830713
  H        22.7512058869       10.6192253100        6.6704201570
  H        21.2472471446       11.1770571091        6.3043921795
  C        20.3393227897        9.1070665451        7.4318305855
  H        22.2899470443        8.3956095053        6.8694575989
  H        21.1690763612        8.4593847162        5.6758269697
  C        19.0252518411        9.7218891327        6.8469298136
  H        20.7018885299        9.8107902646        8.1716102879
  H        20.0969444008        8.1120127671        7.8019191825
  C        17.9329366786       10.0045262895        7.8393208973
  H        19.2871156857       10.5755474228        6.3413708796
  H        18.6202306662        9.0471556169        6.1137477484
  C        16.7441533075       10.8282875930        7.3258155034
  H        18.4815678076       10.5012398236        8.6256594094
  H        17.5666317059        9.0961605793        8.3757820743
  C        17.0934168949       12.1966467800        6.6173421624
  C        16.2629545397       11.6096202947        8.5412998767
  C        15.6291025860       10.0611437287        6.6448571144
  C        16.9554062442       13.2803195672        7.5068442557
  C        17.4063702027       12.5924823572        5.3184357148
  C        16.4431805321       12.9276835956        8.7383272706
  C        15.8429272931       10.9706195368        9.6471351155
  H        16.0832430983        9.6296086335        5.7617699458
  H        15.4018367320        9.1702915910        7.1889712137
  C        14.3535217010       10.9282526106        6.4890371613
  S        17.3473928352       14.7501199786        6.7395690112
  C        17.6266696377       13.9416350709        5.2469725501
  H        17.6326842503       11.8494826507        4.5329425159
  C        16.0772115503       13.5516424064        9.8771707652
  H        15.6547863160        9.9232012673        9.5542588443
  C        15.5366309334       11.5065492580       10.8954292460
  H        14.6297386690       11.8600358228        6.0250764822
  H        13.7787408243       10.9860347211        7.4509158810
  C        13.4640658341       10.2474617950        5.4711395139
  C        18.0427043070       14.6577674389        4.0000756989
  C        15.6272581952       12.8546809134       11.0153836783
  H        16.1650721534       14.6223750681        9.8947088163
  C        15.0201968598       11.1059410074       12.0995475057
  H        12.4804122817       10.7489652172        5.4616215436
  H        13.2681203368        9.2223555562        5.8040203988
  C        14.0856263575       10.2727182769        4.0750334380
  C        18.1487654480       16.0635305222        3.7972300319
  C        18.4924128788       13.8175656035        2.8791886054
  C        15.3040207174       13.5447574882       12.2947479320
  C        14.9593428149       12.1499663381       12.9892903701
  S        14.6784664968        9.5865800223       12.8278132744
  H        14.7901418277        9.5982244380        3.7479201168
  H        14.6738245646       11.1954615649        3.9731487235
  C        12.9814736070       10.1967673587        2.9152389231
  N        17.8088400564       16.9521517399        4.8021038584
  C        18.4571436763       16.6407232207        2.5356209375
  C        18.8130418358       14.3859283038        1.6387347221
  H        18.3898608487       12.7603978914        2.8173250831
  C        14.1248635927       14.4867532038       12.1077929932
  C        16.5262449795       14.1590763708       12.9019511893
  C        14.5165975269       11.7136795739       14.2389525283
  C        14.4730414695       10.3509127073       14.3443713650
  H        12.3530157119        9.3408385783        2.9336073075
  H        12.3781878785       11.0363596918        3.1476928538
  C        13.5466734350       10.4148566979        1.5448980216
  S        17.6218247463       18.3794985857        4.0647652593
  N        18.1742681407       18.0035474562        2.5530456189
  C        18.7941523565       15.8625933960        1.3938530174
  H        19.2470595094       13.7727638524        0.8160100316
  H        14.2782871924       15.3107319526       11.4269913313
  H        13.9971890017       14.9617403511       13.1300506640
  C        12.7952032798       13.7875167811       11.6407628127
  H        16.8657977079       14.9956054374       12.3693244751
  H        16.0373457911       14.5433821715       13.8048081851
  C        17.6446913117       13.1644999128       13.2867001440
  H        14.3221208741       12.5034674866       14.9611930686
  C        14.1011940168        9.5437841691       15.5512774714
  H        14.4919704339        9.8167098463        1.4644054801
  H        13.8390735610       11.4701048662        1.4239489893
  C        12.6181608139        9.8783095234        0.4278895201
  C        19.1831735500       16.5109461532        0.1915169444
  H        13.1493996851       13.1062678208       10.7993124148
  H        12.4645064465       13.2140252581       12.4740184898
  C        11.6438098723       14.7046027577       11.1416051037
  H        18.3051329100       12.8026857094       12.4593876805
  H        17.3795755737       12.3732410160       13.8998225481
  C        18.6695520703       13.9566432890       14.0902971683
  C        13.9320809399        8.1434258549       15.6507525301
  C        13.8420981401       10.3487436247       16.8061909579
  H        13.2159660452        9.0600961331        0.0417499499
  H        11.7454523909        9.4535158094        0.8099777904
  C        12.3689929560       10.7702281684       -0.7592689143
  H        18.9536910923       17.5497954424        0.1759391099
  C        19.4145373464       16.0209100914       -1.0793750195
  H        12.1183427734       15.5786832893       10.7169039379
  H        10.9935861035       15.1188778937       11.9247193154
  C        10.7682230218       14.0650298635       10.0554806116
  H        18.8817469278       14.9762363860       13.7299077401
  H        18.1851313469       14.2265047670       14.9734571846
  C        19.9074753976       13.0733464814       14.2549124695
  N        13.9993850436        7.2375853766       14.5662528708
  C        13.4574483971        7.4764325541       16.7857267679
  C        13.5248359008        9.6687822424       17.9721846995
  H        14.0627468089       11.4505392271       16.9428457020
  H        11.5680981311       11.5069023346       -0.7059927941
  H        12.3428755638       10.3192804727       -1.7542676299
  H        13.2645957054       11.4453702647       -0.7854839532
  S        19.5349713901       14.3893767384       -1.6071766657
  C        19.3823755218       17.0056342126       -2.2093606057
  H        11.0963506883       14.4851619972        9.1171719716
  H        10.9851702701       12.9963514310        9.9394379541
  C         9.2417099805       14.2240970695       10.0856341302
  H        20.2690611507       12.7684182917       13.2425280955
  H        19.7748539557       12.1875115553       14.8785437910
  C        21.0318633194       13.8091508861       15.0868404749
  S        13.8076860122        5.6992510130       15.1590834357
  N        13.3995519231        6.0868460759       16.7028583757
  C        13.3486884212        8.2289489941       17.9780978175
  H        13.4975608616       10.1864659739       18.9322796088
  C        19.7153609833       14.9407984966       -3.2120091631
  N        19.5798467729       16.2753209770       -3.3144212378
  O        19.2508425101       18.1944589224       -2.0432089182
  H         8.9421969857       13.8895590350       11.0251352565
  H         8.9035285141       15.3099985950        9.8734628745
  C         8.5516412232       13.3573394260        9.1365897477
  H        20.6325121645       14.1850230417       16.0276791711
  H        21.9286363154       13.2192435626       15.3141801141
  C        21.5432386700       15.0821457715       14.3888784030
  C        13.1701545594        7.4569120153       19.1418560710
  S        20.1298574392       13.9970119310       -4.6108015186
  C        19.6911708599       16.9902859714       -4.5867601148
  H         9.2025997544       13.1282403580        8.3951809582
  H         8.3524969495       12.3378962076        9.5076436800
  C         7.2993484573       13.9509091067        8.5169797984
  H        21.1213596786       15.1929125473       13.4156244575
  H        22.5983879261       14.9363805150       14.2213134398
  C        21.4030885296       16.3589832824       15.2281015774
  H        13.6030340249        6.5297292866       19.0427681125
  C        12.6438941103        7.7341399985       20.4081842853
  H        20.3783059641       16.5504787438       -5.3161095966
  H        19.9806752091       18.0131364776       -4.3866481627
  C        18.4777586323       17.0634063187       -5.3734472899
  H         6.9288882881       13.2357750062        7.7161677440
  H         7.3171964326       14.8915006934        7.8987313482
  C         6.2490979832       14.1362472802        9.6422255477
  H        20.3362999365       16.3899318207       15.4833715754
  H        21.8107059099       16.1599696707       16.2117040460
  C        22.0161067073       17.6641403781       14.5740552923
  S        11.9753725240        9.2066111006       20.9731553921
  C        12.7090433628        6.6709723398       21.4171068698
  H        17.7308128277       17.3277615037       -4.6664676896
  H        18.2964741394       16.1714221214       -5.9434397538
  H        18.5672230765       17.8414076644       -6.0992742262
  H         6.2153771796       13.1342557362       10.0971576894
  H         6.5693319325       14.8460443157       10.2977280295
  H         5.2852417661       14.3056160740        9.2599012639
  H        22.2712060359       17.5930692965       13.4860612984
  H        21.2479466774       18.4312563456       14.8309799877
  H        22.9190243303       17.9628559909       15.0357502695
  C        11.9381889531        8.5071035812       22.5402955370
  N        12.1774400558        7.2019435709       22.5357088764
  O        12.9022656920        5.4976682891       21.1488715667
  S        10.9988375331        9.1442510780       23.9417189720
  C        11.9897162492        6.3115635816       23.7187445906
  H        12.1066913144        5.2626421365       23.5039142816
  H        11.0080378362        6.3851610552       24.0873311682
  C        13.0122622145        6.7004634371       24.8028050911
  H        12.6422784282        7.3380997788       25.6376934973
  H        13.9226210162        7.1944162238       24.4643813054
  H        13.4583339143        5.7913692966       25.1346038575
