352
 i =    53400, time =    53400.000, E =        24.7285842894
  H        12.1916695373        5.3205980117       32.4420960016
  C        11.1928920517        5.4692147375       32.7137712665
  H        10.7448956048        4.5070949102       32.6686566393
  C        10.6461204779        6.4628192298       31.6840898290
  C        11.1061299959        6.0392246601       34.1310233810
  C        11.1362930153        6.1904619506       30.2279678233
  H         9.6150445840        6.2601169565       31.5681289648
  H        10.8842014163        7.5404591888       31.9805276538
  H        10.2870374001        6.6684796201       34.3707931286
  H        11.1633049094        5.3034907276       34.9365027856
  H        12.0887127311        6.4047153858       34.4002444174
  C         9.9792910240        6.1113241053       29.1627802297
  H        11.6793331241        5.3289206309       30.2006080313
  H        11.7474866404        7.0762361550       30.0025071819
  C        10.6752201868        5.7061598958       27.8318225054
  H         9.1856070965        5.4871372465       29.4973627198
  H         9.5170322064        7.0598384841       29.0069958905
  C         9.7312374620        5.0498915968       26.7362388658
  H        11.4083316805        4.9243300786       28.1274057672
  H        11.2464842982        6.5988383023       27.4303850950
  C         8.5062601591        6.0012281468       26.3664649664
  H        10.2554126883        4.7999612911       25.8111941024
  H         9.3846481250        4.1494352691       27.2623687735
  C         7.3948145906        5.2822317018       25.5387245927
  H         8.0347078079        6.3093054710       27.2917832996
  H         8.8489760818        6.9387420612       26.0051408428
  C         7.0483651830        4.0053246565       26.2892519405
  C         7.8011525169        4.5585417747       24.2987563395
  C         6.0713852283        6.1247178873       25.3315644689
  C         7.1932495807        2.9057016718       25.4494113605
  C         6.6644864301        3.6396605589       27.5399300472
  C         7.7101015016        3.2119430485       24.2287846550
  C         8.1588646021        5.2403468897       23.1979621774
  H         6.1894001562        6.8258327730       24.5097867477
  H         5.7211022078        6.6449941345       26.2137898981
  C         4.9330747537        5.2859385856       24.7624632985
  S         6.8559742345        1.4242306185       26.3127993516
  C         6.4625307583        2.3184278265       27.7213619760
  H         6.5635254244        4.4684451233       28.2629446091
  C         8.0928993211        2.6163081414       23.0471114446
  H         8.0623076446        6.2767854620       23.0689428280
  C         8.5090603421        4.6421104301       22.0092768635
  H         5.0478892737        5.1278140686       23.6837236829
  H         4.7446905175        4.2607066952       25.1817213001
  C         3.5580867878        6.0663499269       24.9399227835
  C         6.0676581877        1.6931444127       28.9999360401
  C         8.5186526035        3.2886625069       21.8897136801
  H         7.9789358099        1.5693759719       23.1056285407
  C         8.9020371175        5.0556072557       20.7618302770
  H         2.8439593766        5.4775746370       24.4317410884
  H         3.6149093407        6.9682678043       24.4046362544
  C         2.9580101057        6.3285886309       26.3166871280
  C         6.0819022705        0.2529722553       29.2476258384
  C         5.6018534035        2.4765857845       30.1265277624
  C         8.8101268609        2.5275205674       20.5795961593
  C         9.0180779189        3.9336766041       19.9031523803
  S         9.2240266049        6.5337255123       19.9368074926
  H         2.2941383731        7.2074942914       26.2558937791
  H         3.7191242330        6.6506353135       26.9267399609
  C         2.1458938390        5.0407385525       26.8015576383
  N         6.4807473009       -0.7268431917       28.2744837115
  C         5.7904650356       -0.3576377372       30.4766097916
  C         5.3563863834        1.8141205941       31.3879254723
  H         5.6434879638        3.5359049690       30.0226316563
  C         7.6346054902        1.6636006583       19.9792001696
  C        10.1732230986        1.6644881918       20.7793399580
  C         9.3988922659        4.3130287598       18.6190819768
  C         9.5867688482        5.6939412811       18.4859847912
  H         1.4063897362        4.6974637619       26.0892400348
  H         2.8072851172        4.1657512591       26.9091175820
  C         1.3913838796        5.1641788462       28.1286447183
  S         6.4705427390       -2.1725688168       29.0533407610
  N         5.8219614218       -1.7688498509       30.4253892252
  C         5.4910264980        0.3689357284       31.6153325549
  H         5.1080875701        2.4147216407       32.2241528145
  H         7.3280448432        1.0601742132       20.7353082518
  H         7.8895670975        1.2031109497       19.0403358536
  C         6.4574859915        2.5611993600       19.8699797650
  H        10.4101154376        0.8942830701       20.0626027440
  H        10.1961249651        1.1479627634       21.7254344627
  C        11.4587755763        2.5010009891       20.9329443479
  H         9.5634526899        3.5049433559       17.9165281835
  C         9.9058262684        6.5410562021       17.2354205612
  H         0.9870249802        4.1491105183       28.3662808665
  H         0.5281389874        5.7966671739       28.0989409551
  C         2.2906002262        5.4802975981       29.3499848258
  C         5.3908547851       -0.3112674725       32.9045616778
  H         6.6419836663        3.2800245932       19.0747137282
  H         6.2775894341        3.0514889789       20.7819047042
  C         5.2492275816        1.7915663489       19.3017948475
  H        11.4269381445        3.0059699586       21.8382829687
  H        11.6272884279        3.2366564537       20.1562525133
  C        12.7435786622        1.5846454184       21.0039284949
  C        10.0194446587        7.9551790936       17.1468640770
  C        10.1138762558        5.8337040375       15.9665350773
  H         3.1099045828        4.7768765389       29.4523682173
  H         2.6001529059        6.4831724441       29.2201747491
  C         1.3563949154        5.5927421990       30.5184788190
  H         5.5483081938       -1.4007456828       32.8357324599
  C         5.0303934940        0.1586478478       34.1657784200
  H         4.7933822988        1.1732433391       20.0725927227
  H         5.6218225040        1.0747174368       18.5991019014
  C         4.1319240452        2.5729775941       18.5056458206
  H        12.7481195178        1.2006650403       22.0392276011
  H        12.7440929433        0.7604899018       20.3128024314
  C        13.9867233503        2.4364806988       20.7683391348
  N         9.9282028259        8.8103013544       18.2589059262
  C        10.3843980358        8.5970176196       15.9863854554
  C        10.5153132129        6.5225364091       14.7606136507
  H        10.0435325555        4.7111123039       15.8201219701
  H         1.7843392884        5.3133099917       31.4593448336
  H         0.8921346300        6.5437200420       30.6605094396
  H         0.5742770949        4.8539531642       30.3993970421
  S         4.6004437239        1.7541014461       34.6243911667
  C         4.9494914761       -0.8211776178       35.2726837954
  H         3.8622906704        3.5077934384       19.0028713802
  H         4.4713796989        2.9273023053       17.5265767620
  C         2.8495205037        1.8404738283       18.3499811963
  H        13.7789928622        3.3455599347       20.1602935278
  H        14.7437223899        1.8329023861       20.2512512923
  C        14.5463887213        2.9512395130       22.1653672621
  S        10.2389019060       10.3225897337       17.7453796753
  N        10.5289287906        9.9925885009       16.1403455772
  C        10.7340767919        8.0018157497       14.7623104294
  H        10.7264755366        5.9146099184       13.9038069202
  C         4.2853866660        1.0756286654       36.2137544083
  N         4.5001694900       -0.2255963041       36.3981500226
  O         5.1236054255       -2.0385585475       35.1673434436
  H         2.1105460199        2.5256058614       17.9978105428
  H         2.4060231177        1.5225311719       19.3444777308
  C         2.9716422092        0.6436863209       17.4122408433
  H        15.0812509647        3.9181531345       22.0140659694
  H        13.7268355192        3.1746912944       22.8075851945
  C        15.4761634754        1.9983923864       22.8636724605
  C        10.8812297984        8.7837751799       13.6332002954
  S         3.8551232142        2.0281833115       37.6792427103
  C         4.3389576181       -0.8923226367       37.7228406010
  H         2.2580969301        0.7237035249       16.6389849347
  H         3.9268888197        0.5461327866       16.9454234688
  C         2.6300216740       -0.7092745932       18.0935500687
  H        14.9926393524        1.0175037867       22.8821935249
  H        15.6024368279        2.2353966111       23.9144723160
  C        16.8486226034        1.9375138964       22.1000826550
  H        10.7650563188        9.8954460471       13.6644535099
  C        11.2945037730        8.4440630884       12.3680346844
  H         3.5373900973       -0.4942501154       38.3809574441
  H         3.9224078363       -1.8914626726       37.4201603951
  C         5.6669117854       -1.0261578439       38.3625010193
  H         1.7923054874       -0.6411985742       18.8362633590
  H         3.4982776906       -0.9549995196       18.7121521194
  C         2.3408201783       -1.8374475268       17.0884844150
  H        16.9894889780        0.9661142326       21.6658611050
  H        16.8904090535        2.7109317483       21.3251952137
  C        17.9962302668        1.9969405757       23.1249880568
  S        11.7099260596        6.8958682313       11.7860512463
  C        11.4575095482        9.5014961712       11.3835773336
  H         5.8543432469       -0.2989317877       39.2150168785
  H         5.6405260835       -1.9806823239       38.9410872931
  H         6.3829878908       -0.9832842531       37.6554995200
  H         1.5753559370       -1.6199236460       16.3678775892
  H         2.1519776948       -2.8090868706       17.5773884937
  H         3.1916966222       -2.0328994432       16.4190812240
  H        17.7364874610        1.3127404272       23.9261334315
  H        18.0671017452        3.0221131247       23.5717724215
  H        19.0234116549        1.6953563645       22.7901369474
  C        12.0440901765        7.6488518474       10.2116180389
  N        12.0151523118        8.9959718219       10.2398592296
  O        11.2528860864       10.7417025973       11.5726950999
  S        12.3931682516        6.7850422652        8.6829668354
  C        12.1860879769        9.8293831908        9.0162436097
  H        12.5454297348       10.8666956174        9.2614473064
  H        12.9948372740        9.4045951483        8.4342415001
  C        10.9301017437        9.6815633436        8.2938138007
  H        10.2278025575        9.1131259552        8.8383846901
  H        10.4479376540       10.6571968131        8.0197551134
  H        11.1365576248        9.1468354379        7.3306872597
  H        23.5458352937       10.5162514346        3.2217865362
  C        22.8081959426       10.9233570489        3.9206918365
  H        22.9632230782       11.9914910129        4.1546977258
  C        23.0006334072       10.1991769039        5.2489219087
  C        21.3948324109       10.6978457663        3.4114140297
  C        21.9462336672       10.4997553927        6.2408364147
  H        22.8921912123        9.1549599782        5.0711230375
  H        23.9783576656       10.4516224197        5.6354845221
  H        20.7791008785       11.2862789129        3.9537310398
  H        21.1317780221        9.7243958339        3.5368673112
  H        21.3114546476       10.9425229991        2.3738544237
  C        21.1593786515        9.2745462315        6.6808295133
  H        22.4581956995       10.9137391656        7.0838057879
  H        21.2721333774       11.3753269427        5.9444580292
  C        20.1719724867        9.5951239182        7.8253773964
  H        21.7906448393        8.5348763682        7.1417088711
  H        20.6211845942        8.8070024908        5.8591255688
  C        18.9470406630       10.4973917501        7.4952121009
  H        20.7119063771        9.9692551316        8.5785648699
  H        19.9962661190        8.5802364100        8.2052186606
  C        17.6322710654        9.8576996835        6.9732035299
  H        18.6283717898       10.9860014562        8.4141712707
  H        19.3083507406       11.2464572763        6.7654321965
  C        16.4116479837       10.7779222400        6.8117388827
  H        17.4116405116        9.0563595203        7.6779493744
  H        17.8635352625        9.3717089363        6.0857800482
  C        16.9018278567       12.1181696459        6.1583447095
  C        16.0375534651       11.5208659704        8.0573629339
  C        15.1907581284       10.2210500275        6.1102711828
  C        16.7865257543       13.2147949026        7.0312643836
  C        17.4598167167       12.4589057361        4.9187731601
  C        16.2194370590       12.8054714138        8.2328375255
  C        15.6072696826       10.8481924478        9.2413622604
  H        15.5550121665        9.7977402890        5.1620333478
  H        14.7683666992        9.3375834004        6.5536982997
  C        14.0787849244       11.1547558152        5.8101986596
  S        17.3350114255       14.6684608897        6.3415732273
  C        17.6867634366       13.7903786265        4.8401363708
  H        17.5856529214       11.6993328453        4.1911585523
  C        15.9070452959       13.3876161452        9.4176841513
  H        15.4899175206        9.7398254411        9.1991997765
  C        15.3005709105       11.4588452020       10.4478520172
  H        14.4530335831       11.9973356319        5.2864857857
  H        13.5301581047       11.6595213684        6.6066820335
  C        12.9678181112       10.5965806131        5.0225813132
  C        18.1193579566       14.4992484561        3.5999838030
  C        15.4052541915       12.7870654255       10.5996349663
  H        16.0951801968       14.4843330877        9.5108864106
  C        14.9550162720       11.0379713347       11.7444649753
  H        12.1922495196       11.3503605985        5.0057914032
  H        12.6221408236        9.7119875772        5.5062346053
  C        13.4130739021       10.4738949572        3.5715508988
  C        18.0389685463       15.8394730012        3.3364174836
  C        18.6620516564       13.7374802503        2.4440232887
  C        15.1092977671       13.5354412031       11.8605188250
  C        14.7657452042       12.1246488958       12.5932298449
  S        14.6224388177        9.5371893850       12.5211811208
  H        14.3141672056        9.8235543299        3.5459597194
  H        13.7896258202       11.4057509022        3.2202375599
  C        12.3297852791       10.0971460730        2.6237379969
  N        17.6159609992       16.7568405409        4.2862067463
  C        18.2853922347       16.4901028794        2.1351866954
  C        18.9541373331       14.2938851291        1.1640702318
  H        18.9245142790       12.6924270358        2.6502339359
  C        13.9060983699       14.4915468944       11.7091553901
  C        16.3399888619       14.1849098499       12.5200404478
  C        14.4449700568       11.7253869260       13.8602355635
  C        14.2597719166       10.3708069145       13.9550227764
  H        11.6424918972        9.4308252389        3.0582268204
  H        11.6255986313       10.9266704425        2.3974931429
  C        12.7816673755        9.4547359294        1.2438222653
  S        17.7875231674       18.2737632287        3.7080455827
  N        18.1546740840       17.8769180273        2.1911021069
  C        18.7093771803       15.7759846198        0.9806682793
  H        19.3017782512       13.6429569389        0.3954719974
  H        14.1183242017       15.0697858088       10.8033141088
  H        13.8127423461       15.3059581661       12.4777573691
  C        12.5790491081       13.6981951556       11.5562155988
  H        16.8384248946       14.6885745865       11.7669295301
  H        15.9280500822       14.8117462058       13.3435285771
  C        17.4128808778       13.3036856308       13.2002746652
  H        14.2950221906       12.5305097296       14.5737229442
  C        13.9461919955        9.7093969085       15.2132695560
  H        11.9632752070        8.8704079565        0.8022974950
  H        13.5843869389        8.7396967001        1.3850334589
  C        13.1704347832       10.4935111314        0.1703351849
  C        18.8746138177       16.5485763730       -0.1766804171
  H        12.6789676182       12.8516910311       10.7622619691
  H        12.2950885705       13.1666935455       12.5098450037
  C        11.4614377742       14.5987910091       11.1879370872
  H        17.8675610345       12.4924845354       12.6306337258
  H        16.9683966402       12.7541869624       14.0262884789
  C        18.5385947679       14.1652987257       13.7321466370
  C        13.8921629527        8.3023384972       15.4408577472
  C        13.7805961301       10.5509067559       16.4268719722
  H        13.2027021160       11.4634928672        0.6662825483
  H        14.2402680291       10.1410827603       -0.0969395974
  C        12.3547610034       10.4492366307       -1.0880463864
  H        18.9736269349       17.6073780995       -0.0300774399
  C        19.2907004180       16.1558988131       -1.3941559084
  H        11.7592904471       15.4054185959       10.4278935025
  H        11.2751352788       15.2042268211       12.0287770138
  C        10.2861030373       13.7757044380       10.6523159388
  H        19.0702767209       14.7944846547       13.0308479430
  H        18.0834730675       14.9197427602       14.3493874502
  C        19.6570707204       13.3088434434       14.4688219340
  N        13.9143898637        7.2733766620       14.4737213021
  C        13.6122064650        7.7845937259       16.6564088861
  C        13.4292930800        9.9851498564       17.6619935054
  H        13.7974102567       11.6601637336       16.3224184974
  H        11.3057910141       10.2617372280       -0.8770134305
  H        12.8575127185        9.7001168381       -1.7142551119
  H        12.3616153499       11.4399933537       -1.5732546168
  S        19.6439980602       14.6376993590       -2.0081043561
  C        19.3107425876       17.2621142733       -2.4644756349
  H        10.6397485814       13.1383989064        9.8263550828
  H         9.9534014387       13.0571635560       11.4663710315
  C         9.2315993082       14.5495498348       10.0243249630
  H        20.0442664699       12.5731038085       13.7057100698
  H        19.1346606905       12.8255759023       15.3539340957
  C        20.9517453140       14.1745783561       14.7722343724
  S        14.0140740083        5.8526814285       15.2095597749
  N        13.5870286981        6.4024368986       16.6816370204
  C        13.3484039811        8.5115866499       17.8141210400
  H        13.2513109244       10.6792522970       18.4929617387
  C        19.7827533482       15.3234219423       -3.5495425159
  N        19.6558188722       16.7324637336       -3.6454111592
  O        18.9360166606       18.4376927317       -2.2557720600
  H         8.7143438978       14.9266621963       10.8480231771
  H         9.5569114119       15.4964695407        9.5271138755
  C         8.4262438306       13.7241541988        9.1392443251
  H        21.8133931821       13.5359043619       15.0030762967
  H        21.2174676958       14.7494695353       13.8394256313
  C        20.6189372841       15.1611691842       15.8841898460
  C        12.9617531681        7.8162429859       19.0314460990
  S        19.9056915907       14.4228809598       -5.0908717260
  C        19.6052477259       17.5289910874       -4.9008661924
  H         8.9068041653       13.4913984810        8.2133038664
  H         8.2312874102       12.7302422309        9.5140131175
  C         7.1437238242       14.4019154748        8.6980431640
  H        20.2535465541       14.4742411190       16.7082513602
  H        19.8470387702       15.8612990990       15.4914750878
  C        21.8743397059       15.9868723321       16.2203566730
  H        12.9991321963        6.6974319541       19.0427334827
  C        12.4162754981        8.2760327965       20.2260364006
  H        20.2459222656       17.1091035054       -5.6300517522
  H        19.9077787571       18.5681756831       -4.7441581585
  C        18.2233330513       17.4804806921       -5.5305751118
  H         6.8460179286       13.8647573490        7.7652410533
  H         7.3783712765       15.4387565902        8.6313476836
  C         6.0869194427       14.1991700846        9.7170061598
  H        22.0273882704       16.0568468724       17.3023773740
  H        22.7142498900       15.5071643366       15.8032208184
  C        21.7476323771       17.3754738531       15.5582321254
  S        11.8968453765        9.8359727737       20.6055727520
  C        12.1101647066        7.2391141241       21.2648916586
  H        17.3779314537       17.7677372340       -4.9291403992
  H        18.0094070809       16.6123468246       -6.1107748042
  H        18.2981092845       18.2435604639       -6.2391328415
  H         6.3240681901       14.9227286720       10.5663675797
  H         5.1408655455       14.6413594471        9.2883413003
  H         5.8192865259       13.2240024881       10.1398544143
  H        21.4364339302       17.4216542188       14.5038671084
  H        20.9023592401       17.9186343195       16.0647151118
  H        22.6552444096       17.9588183350       15.6433005203
  C        11.3687146358        9.1620966897       22.1807396906
  N        11.5276154750        7.8236446858       22.3131016831
  O        12.5110805193        6.1082006534       21.1933105998
  S        10.2841778931        9.8918888651       23.3918127795
  C        11.3056986614        7.0551857881       23.5277360030
  H        11.4485770621        6.0532274279       23.3822954855
  H        10.1904450443        7.0943743746       23.7398006760
  C        11.9460339554        7.6491118380       24.8299931662
  H        12.4634639500        6.8233199991       25.3342045573
  H        11.1812150561        8.1208340787       25.4903794443
  H        12.6659225179        8.4608597566       24.6319811060
