352
 i =    76500, time =    76500.000, E =        25.0651035567
  H         9.4463235078        6.2644052864       32.3557997836
  C        10.5564479693        6.2702598896       32.5366860410
  H        10.6780341443        7.2464598656       32.9453686991
  C        11.4080478248        6.1509567092       31.1958167248
  C        10.9235542257        5.2904774060       33.6490030594
  C        10.7336722851        5.3635500566       30.0367291315
  H        11.6052607801        7.1526624050       30.8401636320
  H        12.3275385951        5.6760436512       31.5958631521
  H        10.1472873101        5.2818996571       34.4569761649
  H        10.8329705681        4.3863862432       33.0616016257
  H        11.9485218704        5.4521643888       33.9273803602
  C         9.8053576716        6.2154325355       29.0900201025
  H        10.1482162811        4.5119090605       30.3890908825
  H        11.4225714585        4.8055418216       29.4169492318
  C        10.1997851975        6.1060027178       27.6315979270
  H         8.7819531227        5.7765751496       29.2679337512
  H         9.6647694936        7.2491534769       29.3509835799
  C         9.2537085965        5.2077394530       26.7657070167
  H        11.2442546535        5.8176687170       27.5840141598
  H        10.2726766936        7.0819570408       27.0737043159
  C         8.0419030099        6.0007047719       26.2042405368
  H         9.8272373029        4.9115769945       25.9166538601
  H         8.8043860901        4.3400379349       27.3569267595
  C         7.0453320060        5.0324988424       25.5937688110
  H         7.6134358215        6.5656237804       27.0650811211
  H         8.3781413503        6.8427209321       25.4710624750
  C         6.7277353574        3.7025688711       26.3191646457
  C         7.6226222437        4.3139279767       24.4167218556
  C         5.7033691187        5.7473021604       25.2678635264
  C         7.0803211362        2.6104060665       25.5657259085
  C         6.1525836568        3.3525020594       27.5418269848
  C         7.6210814253        2.9808921531       24.3480307043
  C         8.1400997384        4.9907598852       23.3535464865
  H         5.2901551524        5.2425988374       24.4524710342
  H         5.9801560828        6.7195661720       24.8746847353
  C         4.7538162002        6.0379960548       26.4271585321
  S         6.7328404453        1.1290598612       26.2872582092
  C         6.0749874105        2.0036282306       27.7154891179
  H         5.9464725275        4.0746230911       28.2939649984
  C         8.0552203844        2.3903451534       23.2169398520
  H         8.1385747448        6.0810967958       23.2679350885
  C         8.3562279272        4.4020230146       22.1206892631
  H         5.1763657629        5.9492770222       27.3700217763
  H         4.5560710703        7.1840064892       26.3713615240
  C         3.3870478686        5.2979796637       26.3466475809
  C         5.6759916308        1.3608620746       29.0109452977
  C         8.3907348525        3.0760150644       22.0373200732
  H         8.1751905101        1.3760173449       23.1545564941
  C         8.8428354496        4.8078309005       20.9242186719
  H         3.6922748021        4.3021624257       26.5379142823
  H         2.9271867444        5.3528629650       25.3359930180
  C         2.4065753862        5.8654645049       27.3623669854
  C         5.7041911192       -0.0091591049       29.2918059404
  C         5.1188052278        2.2214916648       30.0847646076
  C         8.6993915630        2.3722326752       20.7428358937
  C         8.9974714256        3.7006665137       20.1266609525
  S         9.3265997868        6.2983410319       20.2910432201
  H         1.4010598974        5.7630297321       26.9992686859
  H         2.6346139628        6.9039553374       27.5304265802
  C         2.5807634083        5.2904445249       28.7231717726
  N         6.0841113365       -0.9909015987       28.3959471351
  C         5.3627262127       -0.5872675577       30.5167131577
  C         4.9476327666        1.6562340702       31.3454867959
  H         4.9284596961        3.2633496626       29.9689445089
  C         7.5667904612        1.6499229049       19.9833072265
  C        10.0518823617        1.5827542665       20.8794645630
  C         9.5175272770        4.0911146378       18.8965780269
  C         9.5925940781        5.4386421346       18.7848328872
  H         2.4588590389        4.2474463362       28.7239027023
  H         3.5394624172        5.6374496102       29.1266557354
  C         1.5820528311        5.8898462969       29.7077563524
  S         5.9098479790       -2.4787565435       29.1242285532
  N         5.4242165318       -1.9592664520       30.5432427653
  C         5.0115442865        0.1863699137       31.6181848389
  H         4.6509734989        2.2912211287       32.1470779070
  H         6.9816267661        0.9941740355       20.6206445287
  H         8.0572837759        0.9671824147       19.2154857344
  C         6.4778388575        2.5659192811       19.4675269364
  H        10.2043676958        1.1461417582       19.8995584531
  H         9.8634018160        0.7082029415       21.5401666347
  C        11.3081558843        2.3899883886       21.2451495870
  H         9.8072735524        3.3093380171       18.1548324748
  C         9.9104636531        6.1808967936       17.5554804210
  H         0.6045910145        6.1900716884       29.2004975579
  H         1.9684096053        6.7990136529       30.1575795032
  C         1.0903176317        4.9889240385       30.9093311885
  C         4.8634098018       -0.3848676946       32.9366929527
  H         6.8726356365        2.9637768506       18.5537449386
  H         6.3194971437        3.5990578535       19.9081718515
  C         5.0670587040        2.0111263041       19.2579956453
  H        11.1394518444        3.0210394652       22.1218079981
  H        11.6246029247        3.0468936703       20.3795274565
  C        12.4908282139        1.4859361039       21.5608915480
  C         9.8939768120        7.6099100691       17.3783372651
  C        10.0952603795        5.3552596593       16.3254928976
  H         0.6009813930        5.5993671232       31.6039683779
  H         0.2872946522        4.2530818126       30.5626748502
  C         2.1458134483        4.2781028642       31.6749245788
  H         5.0455988002       -1.4461209932       32.9724781132
  C         4.5043031010        0.0112269069       34.2258552029
  H         4.4117344551        2.9121383005       19.3078048600
  H         4.7245961167        1.3724553925       20.0326346421
  C         4.9149375629        1.2430367924       17.9840751661
  H        12.1141702025        0.6798636960       22.1964795066
  H        12.8760339246        1.0071595332       20.6290468061
  C        13.6018507093        2.2932902489       22.2570233742
  N         9.6027990785        8.5530262271       18.3753778776
  C        10.2738955836        8.1939364786       16.2011705588
  C        10.3986326797        5.9731845558       15.1217150569
  H        10.1338706733        4.3412247685       16.2477664725
  H         2.5756151377        4.7876915836       32.4571196118
  H         1.5445103803        3.6019490064       32.2361822209
  H         2.8779583622        3.7235455209       31.0944280423
  S         4.0985458162        1.5957060750       34.6975068143
  C         4.5906107980       -0.9938545832       35.2746331856
  H         5.3087976095        1.8209878806       17.1958812123
  H         5.4385569183        0.3079388700       18.0988011998
  C         3.4401774277        1.0374008572       17.6409095509
  H        13.2219357657        2.9789533032       22.9664148549
  H        14.1197691320        2.8709351754       21.4591310545
  C        14.8113488053        1.5732282313       22.8492983395
  S         9.7988391385        9.9903469631       17.7008867560
  N        10.2581558939        9.5608760561       16.1904152711
  C        10.5421872787        7.4266735975       15.0396429614
  H        10.3977171893        5.2944386357       14.3080043029
  C         3.9681165041        0.8909456950       36.3802618531
  N         4.2029894737       -0.4761513795       36.3979727307
  O         5.0358121698       -2.1445499499       35.1495494473
  H         3.3532077686        0.6592814187       16.6239043812
  H         2.8182225477        1.9649971600       17.6320087658
  C         2.7044727700        0.1113079358       18.5948331625
  H        14.6846994670        0.8792291673       23.6844120555
  H        15.3809660590        1.0469296869       22.0922334826
  C        15.8213023113        2.5705580145       23.4279537438
  C        10.7345503977        8.0645830668       13.7561225031
  S         3.2654850502        1.7047375401       37.8300252875
  C         4.2448815032       -1.3088028244       37.5922054559
  H         3.2301767751       -0.2814422550       19.4386311990
  H         1.8749971291        0.7985782731       18.9041863317
  C         1.9785090454       -1.0573530971       17.9131133920
  H        15.6391847529        2.7308220068       24.4959072751
  H        15.7196432305        3.6270561680       22.9858557608
  C        17.2149006027        2.0289042405       23.3066111613
  H        10.5765087145        9.1434307973       13.7825248411
  C        11.3145322026        7.6525310636       12.5554457788
  H         3.4598120780       -1.0847503860       38.3371285496
  H         4.0100182103       -2.2668636764       37.2560790203
  C         5.6545149681       -1.1341349754       38.2253671951
  H         1.5182384199       -0.7150960835       16.9382186959
  H         1.1541053383       -1.3670845931       18.5767224529
  C         2.9455994399       -2.1476603145       17.5864095533
  H        17.9778426206        2.4586568806       24.0121230874
  H        17.1316755735        0.9802875586       23.4022871896
  C        17.6755646376        2.1835737401       21.8479295952
  S        11.9619577681        6.1167755423       12.2035152412
  C        11.5065192821        8.6162724434       11.4755205522
  H         6.4324365172       -1.7041233928       37.7064338455
  H         5.9690952022       -0.0960260211       38.1751655913
  H         5.7162153658       -1.3957589445       39.2512547396
  H         3.6773748258       -1.8611619417       16.7827838918
  H         2.3934480340       -3.0449098603       17.3826764070
  H         3.5454876595       -2.3258257637       18.4888177846
  H        17.0748559471        1.7562298467       21.0974560531
  H        18.6903367009        1.7590131976       21.6991818207
  H        17.8590735113        3.2242418818       21.4997859357
  C        12.4270772753        6.7521741532       10.7108326733
  N        12.2748309965        8.0731751242       10.5339055591
  O        11.0450776176        9.7586539238       11.4253726989
  S        13.0462362537        5.7534697328        9.3240132487
  C        12.4566517169        8.8426267135        9.2900880582
  H        12.7750407192        9.8985692215        9.5522899108
  H        13.2762147882        8.6808586676        8.7322356588
  C        11.2790814622        8.8217266470        8.3627010029
  H        11.0236889639        9.9265633037        8.3236421568
  H        11.5436555918        8.4845685762        7.3599084403
  H        10.4183931589        8.3417961322        8.7553850508
  H        20.9068265326        9.9407385138        3.0873390881
  C        21.9531260609        9.9131963041        2.9308858884
  H        22.2294685227        8.8513724289        2.7734287029
  C        22.7481422999       10.5978726652        4.0938495340
  C        22.1710588432       10.7343397652        1.6500134682
  C        21.8542880979       10.6267395371        5.3511339203
  H        23.5021054921        9.8666745430        4.3478891652
  H        23.1686757668       11.5188062599        3.8542688006
  H        22.9436666564       11.5544778340        1.8509883007
  H        21.2516365547       11.1198169505        1.1645387360
  H        22.6846665419       10.0657257071        0.9279719625
  C        21.4686396875        9.2055450172        5.7644274356
  H        22.2137885978       11.1753757355        6.1868040150
  H        20.9791038502       11.2144212100        5.1006495950
  C        20.3150579016        9.1818961138        6.8733084131
  H        22.3749050423        8.8891330817        6.1869713935
  H        21.2211164531        8.5757389237        4.9568536284
  C        18.9015006110        9.4426477725        6.3004642613
  H        20.5989569258        9.8733423902        7.6553752284
  H        20.2349899740        8.1756789060        7.2699340766
  C        17.8977840528        9.6150746896        7.4238251721
  H        18.9427685581       10.3122009315        5.7539827052
  H        18.6357485894        8.5729100976        5.6927981261
  C        16.5888673203       10.4581387524        7.1137890845
  H        18.3572820064       10.2074635410        8.2419966329
  H        17.6456322462        8.6799543443        7.9377995562
  C        16.9395364438       11.7596877753        6.4229353467
  C        16.1953417205       11.2121383453        8.3334262334
  C        15.4425401871        9.6065612704        6.4279902917
  C        16.7956899074       12.8869536738        7.2666912877
  C        17.2972930229       12.1876162266        5.1450453684
  C        16.2850739308       12.5602292263        8.4594366072
  C        15.6369659426       10.5368131201        9.4321119624
  H        15.8414700926        9.3217317737        5.4559377321
  H        15.1899988395        8.7080176421        6.9868552560
  C        14.2289271595       10.5756509680        6.1794432777
  S        17.2391087925       14.3457056980        6.4734349430
  C        17.4199512915       13.5294508473        4.9512427254
  H        17.0719005582       11.5343293071        4.3784552148
  C        15.9417229103       13.0979337340        9.6774423646
  H        15.5773716035        9.5170795350        9.3267074880
  C        15.2156310731       11.1030958797       10.6041613438
  H        14.4577933387       11.5053660846        5.6439592571
  H        13.8389147910       10.8608351909        7.2021964991
  C        13.1881324225        9.8775389326        5.3413651642
  C        17.7957439532       14.2665951747        3.7363239889
  C        15.4022439987       12.4552336829       10.7665308042
  H        16.1301561770       14.2018064597        9.8068182621
  C        14.9047302904       10.7066275168       11.8834080636
  H        12.3218594988       10.4309380644        5.5248350256
  H        12.9722093482        8.8989759608        5.7943092639
  C        13.5519897012        9.7194853428        3.8210680801
  C        17.7571113981       15.6271572027        3.4713887788
  C        18.3448279604       13.4353622587        2.5968083882
  C        15.0850985251       13.2036170120       12.0153109290
  C        14.8127654489       11.7981546419       12.7440695363
  S        14.5115354381        9.1842379363       12.6622432009
  H        14.2249811874        8.9031147603        3.5709521016
  H        14.0810831756       10.6247364309        3.5370416609
  C        12.2706595433        9.6938145197        2.9930560796
  N        17.2648658021       16.6622836509        4.3550545899
  C        18.0831122783       16.1760429953        2.2106063563
  C        18.6226981561       14.0460952066        1.3362706689
  H        18.4519935712       12.3992581943        2.8105708495
  C        13.6989763385       13.9877515668       11.9366231739
  C        16.2028751354       14.0125640150       12.7450518409
  C        14.4868142874       11.4313551564       14.0510123319
  C        14.2884574216       10.0758459649       14.1515723768
  H        11.6152243116        9.0854575183        3.5405942657
  H        11.8428752786       10.6774084345        2.8677285081
  C        12.5836406163        9.0337701459        1.6176408434
  S        17.3726037665       18.0910715589        3.6521040005
  N        18.0956851029       17.5703930764        2.2768800972
  C        18.5249938267       15.4579882860        1.0224690499
  H        18.9931305104       13.4798602247        0.5400727542
  H        13.9462644063       14.9408226460       11.4130330746
  H        13.2922515092       14.2682346264       12.9337246411
  C        12.5906760404       13.2063451555       11.2658957214
  H        16.6342718396       14.7556013279       12.0488185528
  H        15.8191031551       14.5929864386       13.5526281352
  C        17.3244900877       13.2235707665       13.4638237053
  H        14.5319588119       12.1809799409       14.7800614566
  C        13.9234087921        9.3578305401       15.4324492219
  H        11.5822151953        8.8114222764        1.2035944969
  H        12.9003673371        7.9775797974        1.7942875421
  C        13.4558836445        9.8321850324        0.6936107455
  C        18.7225105104       16.2425683979       -0.1368074655
  H        12.8615437619       12.8588491823       10.2942645836
  H        12.3580302183       12.4122648770       11.9655120693
  C        11.2842053967       13.9882355129       11.3507391493
  H        17.5890113796       12.5052349219       12.7756108895
  H        16.9672208954       12.6947150019       14.3194738091
  C        18.5541565456       14.0123628537       13.8326360106
  C        13.8246350393        7.9517154251       15.6263332734
  C        13.6440810822       10.1612969610       16.6473586573
  H        13.8784276104       10.6790499775        1.1814017141
  H        14.2002751188        9.2139393857        0.2163714133
  C        12.6347208722       10.3233333563       -0.5511861942
  H        18.7510602150       17.3534984714        0.0082709111
  C        18.8013818684       15.7902244442       -1.4289945126
  H        11.3934140911       14.8546105790       10.7243935467
  H        11.0425322317       14.4583478777       12.2945232483
  C        10.0524904439       13.1545316945       10.9521933136
  H        18.8396079236       14.6996120572       12.9929858716
  H        18.2510902601       14.6840647121       14.6953423734
  C        19.8386019614       13.3240525364       14.1599227923
  N        14.1376552062        6.9901384591       14.6665230740
  C        13.3993130796        7.3463663134       16.7566009109
  C        13.3380991163        9.5331544276       17.8309979996
  H        13.6964393671       11.2211729834       16.6712301102
  H        12.3885732761        9.4931613136       -1.1772420144
  H        13.2617907368       11.0111735979       -1.1169892001
  H        11.6628683806       10.7085394834       -0.3401483007
  S        19.1996444345       14.2641312922       -1.9476827123
  C        18.8333458747       16.8385450706       -2.4999172222
  H        10.3714093992       12.2229103511       10.6612518187
  H         9.2897854903       13.1301205218       11.8149291270
  C         9.4294512940       13.7305776203        9.6788358848
  H        20.3794910690       13.0418714866       13.2737133662
  H        19.5564744970       12.4799694552       14.7747938340
  C        20.8933651542       14.1427094569       14.9550445868
  S        13.8572704278        5.4947346458       15.2057459565
  N        13.3567938194        5.9249600699       16.6421125352
  C        13.2017973245        8.0492716600       17.9512045297
  H        13.0570270503       10.1107308137       18.6965307701
  C        19.5382269570       14.9025445201       -3.5292475060
  N        19.2297771173       16.2061557840       -3.6468871103
  O        18.7014039986       18.0560045037       -2.2501414827
  H         8.9387797176       14.6113515660       10.0235104850
  H        10.2543273447       14.0218867197        9.0351261499
  C         8.3768232427       12.6770898509        9.0983004422
  H        20.3576435868       14.7544346243       15.6691325676
  H        21.5342994762       13.5727773033       15.5647615968
  C        21.6792934189       14.9275830944       13.9495836335
  C        12.8531758991        7.2720919460       19.1236296489
  S        19.9749424436       14.0155770185       -4.9537695422
  C        19.3152915401       16.9955203678       -4.8757105576
  H         8.7805688944       12.0245228392        8.4033111147
  H         7.9582066706       12.0627126802        9.9264020104
  C         7.2870904203       13.4623442825        8.3929085017
  H        21.2028549836       15.0163833320       12.9608620856
  H        22.6321371626       14.4500891783       13.6252716135
  C        22.0955442220       16.3543935799       14.3842614034
  H        12.9308854318        6.2541642683       18.9911580744
  C        12.2942853612        7.6269855322       20.3452221879
  H        19.7679326048       16.4988911476       -5.7243650413
  H        20.0625482164       17.7143507467       -4.6061454375
  C        17.9457318838       17.5371950754       -5.1819710654
  H         7.0499493298       13.0939841884        7.4346592111
  H         7.6281878647       14.3856806255        7.9764975917
  C         6.0367413991       13.5872239607        9.2477803584
  H        22.6817924123       16.3412564128       15.2723921508
  H        22.7417249817       16.7339648637       13.6607983200
  C        21.0041733849       17.4149273919       14.4192238713
  S        11.9834370793        9.2427676202       20.8582044184
  C        12.2518875986        6.5897257624       21.3984619982
  H        18.1330059873       18.3000206381       -5.9588973922
  H        17.3706174411       17.9863972589       -4.3845424043
  H        17.3328553983       16.7674500026       -5.5982401417
  H         6.2577429578       13.8938673743       10.2396603006
  H         5.2755343073       14.2163297832        8.8338745326
  H         5.5576804236       12.6601860590        9.5078093471
  H        21.5676640107       18.3493648986       14.5970527008
  H        20.3808708004       17.4967423288       13.5811155565
  H        20.2761776532       17.1767649040       15.1919638027
  C        11.6460612433        8.5386694644       22.3876497189
  N        11.7359013361        7.1635662166       22.5024982677
  O        12.6224974078        5.4018823551       21.3032357111
  S        11.0932563249        9.6626325397       23.5655656163
  C        11.4528781478        6.4182381984       23.6818098104
  H        11.0298640410        5.4212646658       23.4145689631
  H        10.7594915104        6.8778140928       24.2925281044
  C        12.7079165982        6.0200287927       24.4671772059
  H        12.7973677844        4.8949877281       24.4539955830
  H        12.5276588621        6.4109148262       25.4571405111
  H        13.5509166745        6.3919618720       23.8849189874
