352
 i =    24300, time =    24300.000, E =        25.2945058002
  H        11.0890491774        6.9709900017       33.2629627790
  C        11.2838081691        6.2092239154       32.6092431949
  H        12.3250778996        6.3558545495       32.3056125561
  C        10.4555739776        6.3654604368       31.2957590302
  C        11.1357540461        4.7805256279       33.2176724472
  C        11.1438795679        5.6364806416       30.1556974539
  H         9.3985388233        5.9745436757       31.3999306378
  H        10.3722035729        7.4311294181       31.0433310508
  H        12.0585976082        4.2265337943       33.1593979090
  H        10.6248824404        4.7750001261       34.1759867855
  H        10.3808800630        4.1469995883       32.7515295825
  C        10.1419972417        5.0721177822       29.1520778748
  H        11.8038243506        4.8171140978       30.3733654689
  H        11.7247880254        6.3083930333       29.5086887590
  C        10.6680422926        5.2410008666       27.7065692263
  H         9.9030158442        3.9936549663       29.3704509372
  H         9.2558852973        5.7520312938       29.1731473586
  C         9.6188818568        4.5381603911       26.7623917384
  H        11.7358946260        5.0375011428       27.5270648884
  H        10.5775958324        6.4005719475       27.5116258174
  C         8.4488555628        5.5673143319       26.4516416915
  H        10.1665139906        4.3549318246       25.8506375627
  H         9.3952843397        3.5693194108       27.2539642583
  C         7.3318092511        4.8895627447       25.6602397258
  H         8.0849728315        6.2217259537       27.2416172703
  H         8.8522848796        6.3988407983       25.8218492681
  C         6.9817622416        3.5921944333       26.2441670016
  C         7.7330666979        4.1763844808       24.4182609282
  C         6.0579235177        5.7139012543       25.6411489076
  C         7.2564153742        2.5029241696       25.4362374543
  C         6.4353919943        3.2022372554       27.4520105558
  C         7.8214174042        2.8817107985       24.2403541848
  C         8.2806890226        4.8660689458       23.3364658122
  H         6.2074095400        6.6266613557       25.0565256211
  H         5.8242962266        5.8797787920       26.6889754845
  C         4.8024594222        5.0852230751       25.0838007218
  S         6.7603979025        0.9912021878       26.2367315058
  C         6.2065376332        1.8950301194       27.6183131049
  H         6.1629980122        3.9227636514       28.1632071343
  C         8.2199404222        2.2820357623       23.0938364687
  H         8.4883379517        5.9089996031       23.4579602363
  C         8.6639989695        4.3619162303       22.1480323184
  H         5.0359947688        5.0080717857       24.0257234914
  H         4.6844661391        4.1079293149       25.4664130746
  C         3.5799613090        6.0231569724       25.3729386651
  C         5.7533087541        1.2494406637       28.9215079626
  C         8.6470662397        3.0268486630       22.0073056109
  H         8.2694142188        1.1676889926       23.0672559304
  C         9.1422892007        4.7599913277       20.9244730958
  H         2.8760485040        5.6583914282       24.6387820608
  H         3.6971664957        7.0248699654       24.9798906428
  C         3.0797128595        6.1473687746       26.8119391764
  C         5.8311730504       -0.1316912604       29.2098181260
  C         5.2220179313        2.0678881085       30.0278805826
  C         9.0263625966        2.3102046417       20.7180555559
  C         9.3449017639        3.6924870189       20.0948922291
  S         9.4252901982        6.3101503909       20.1817737095
  H         2.2602330241        6.8079878855       26.7788631695
  H         3.8311029398        6.6624610236       27.3804167059
  C         2.7639134766        4.7555535155       27.5126697987
  N         6.4560820678       -1.0888033547       28.3102184172
  C         5.4364205062       -0.7201985306       30.3917870067
  C         4.9645719997        1.5322107373       31.2864676413
  H         5.0625746672        3.1176336955       29.8859440945
  C         7.8992690117        1.5278228217       20.0566538060
  C        10.2953594454        1.4340737440       20.9096737146
  C         9.6353635092        4.1429445290       18.8271291967
  C         9.7934670209        5.4935216134       18.7278373391
  H         2.5427057450        4.1577029009       26.5909862824
  H         3.6208232709        4.3739437227       28.0065835502
  C         1.6151722824        4.9917810276       28.4334733638
  S         6.3182975820       -2.5563554959       28.9867544419
  N         5.6265721799       -2.0912708461       30.4350166572
  C         5.0355865386        0.0954968936       31.5481646179
  H         4.7663076499        2.2487581220       32.0657081688
  H         7.9036875665        0.5469594308       20.5034495127
  H         8.0907391242        1.4085558835       19.0219659694
  C         6.5167188734        2.2053175578       20.1819072807
  H        10.5834297957        1.1086221862       19.9178729085
  H        10.1596375569        0.4903299066       21.4331449701
  C        11.5791120470        2.1422525156       21.4640350924
  H         9.7471193493        3.3678320345       18.0938076035
  C        10.1439477863        6.2418308101       17.4982773638
  H         1.1454017689        4.1413901371       28.8042723417
  H         0.8181220011        5.4442044523       27.8076110114
  C         2.0831218237        5.8030035897       29.6501989850
  C         4.9337650101       -0.5339707698       32.8406954201
  H         6.4901227084        3.1880410133       19.7452897181
  H         6.0906747528        2.3530622725       21.1987216944
  C         5.5408971874        1.3959561375       19.3072910582
  H        11.3937662783        2.2863542880       22.4944774049
  H        11.7451660092        3.1236599342       21.0029559781
  C        12.8096735704        1.3508032132       21.2706857182
  C        10.1448136420        7.6815651884       17.3700430725
  C        10.3205624322        5.5183884985       16.2527886031
  H         3.1640413756        6.0037610754       29.4613563874
  H         1.6535760972        6.8035123401       29.5759402118
  C         1.7819975628        5.1261679329       31.0231870407
  H         5.0938844676       -1.5938812129       32.8461486370
  C         4.5082800169       -0.0825399180       34.0467703057
  H         5.2317884900        0.4779284700       19.8451561670
  H         6.0813637617        0.8315563588       18.4749586197
  C         4.3519887531        2.1942612475       18.7163717828
  H        12.8971227733        0.6416492600       22.0960817965
  H        12.7581627015        0.6574428904       20.3552389627
  C        14.0060240706        2.3392770221       21.1987806372
  N         9.8343045485        8.5612138390       18.3881360467
  C        10.4112698190        8.2387607690       16.1545012388
  C        10.6792626824        6.1260012217       15.0656142965
  H        10.2660646532        4.4499107307       16.2625102789
  H         1.5926226472        5.8635679565       31.8221514142
  H         1.0010506098        4.5018035711       30.9591552586
  H         2.5282425463        4.4142431187       31.4182954479
  S         4.0921676448        1.5605208222       34.5650528326
  C         4.5616846593       -1.1294858126       35.0729175268
  H         4.1533132909        3.0000115619       19.4268406697
  H         4.6984802212        2.7617712530       17.8379003514
  C         2.9967711594        1.4863449501       18.4829292547
  H        13.9201959583        3.2157265236       20.5341559628
  H        14.8241655270        1.8409374265       20.6518622901
  C        14.4564073182        2.7592340510       22.6112157216
  S         9.7817073927       10.0659104651       17.7889231343
  N        10.3726335631        9.6325895007       16.2901715761
  C        10.7182375873        7.5994592917       15.0056530160
  H        10.7214344254        5.4508934260       14.2031425079
  C         4.0686280361        0.7945445145       36.1081422682
  N         4.2507945447       -0.5338087262       36.2343532057
  O         4.8321726537       -2.3098262869       34.9635559158
  H         2.2568876133        2.1570241797       18.0129120931
  H         2.5164876702        1.2340938211       19.3826377577
  C         3.1592516779        0.3412543604       17.4803901132
  H        15.0929859031        3.6772321957       22.5796303540
  H        13.5632134706        3.1032110723       23.1251442772
  C        15.1438144324        1.6683263426       23.3518106483
  C        11.0092796593        8.3740779431       13.8193253361
  S         3.4536580896        1.6865715401       37.4412048444
  C         4.2784107159       -1.1920905032       37.4956319966
  H         3.2596075840        0.7699893730       16.4777350946
  H         4.0929512556       -0.1993383553       17.7269739710
  C         1.9834598703       -0.6855116396       17.5056204547
  H        15.1997328010        0.8008973631       22.6521668571
  H        14.5228839752        1.5073592186       24.1988452514
  C        16.6025267310        2.0203386759       23.7828295478
  H        10.7762356823        9.4107181969       13.9855148615
  C        11.4575220824        8.0021752090       12.6003234229
  H         3.6231047943       -0.7910430110       38.3021201687
  H         4.0112271796       -2.2413979431       37.4941623145
  C         5.6849746201       -1.1738391250       38.0665373687
  H         1.5992941522       -0.8483673501       16.4902743399
  H         1.0756316779       -0.2206160646       17.9627746514
  C         2.3028614785       -1.9687800153       18.2156478673
  H        16.7172400445        2.7983490346       24.5800900600
  H        16.9938306647        1.1002277887       24.2274638223
  C        17.4391389638        2.4144227327       22.5173997148
  S        11.8404193459        6.4815766814       12.0056580479
  C        11.6575987065        9.1646997122       11.6590190811
  H         6.4723488279       -1.4841819612       37.3490343933
  H         6.1141069905       -0.3220879182       38.5189451272
  H         5.6708354439       -1.8308288383       38.9318236927
  H         3.0759058958       -2.4350967296       17.6306852123
  H         1.4281586132       -2.5592141625       18.3700820496
  H         2.6971545849       -1.8707035899       19.2771418657
  H        18.4370428444        2.5603231471       22.7610628818
  H        17.1615793257        3.2588157789       21.9098606765
  H        17.3599742967        1.5972015306       21.8126333812
  C        12.2884340950        7.2622965710       10.4731422115
  N        12.1294699528        8.6202595098       10.4931785625
  O        11.4885182459       10.3584042805       11.9465688542
  S        12.7913337567        6.4234716963        8.9921489410
  C        12.3476761575        9.4352892456        9.2657911681
  H        13.0869523183       10.1696144110        9.4063950153
  H        12.8933172977        8.8858315646        8.5397599721
  C        11.0755217415        9.9746646416        8.5274432562
  H        10.8221438422        9.3089324710        7.7055355415
  H        10.1729567473        9.9859781828        9.1229734041
  H        11.2700904436       10.9494332261        8.0082758593
  H        21.0427195857       10.9941311548        3.0619414726
  C        21.7500747957       10.2120994248        3.3592508879
  H        21.1644806115        9.3060223662        3.5954622116
  C        22.4883538830       10.6613131629        4.7080337252
  C        22.5881956614        9.9769030653        2.0821578648
  C        21.4312365116       10.7797813519        5.8207760824
  H        23.3468644199       10.0444222608        4.9702342323
  H        22.9527847157       11.6352660348        4.5599443709
  H        21.8661448214       10.0801777056        1.2083117502
  H        23.0862956392        9.0045415945        2.0942723736
  H        23.2331394382       10.8516897183        1.9637125831
  C        21.0509130656        9.4578550308        6.5503854709
  H        21.9052740050       11.3040577749        6.6707859527
  H        20.5166503159       11.3887552033        5.4905655876
  C        20.3048716845        9.4610995181        7.9289756321
  H        21.9410273871        8.8857802431        6.5907837456
  H        20.3388284544        9.0022127511        5.7884908873
  C        18.9729498194       10.2544933361        8.0505954518
  H        21.0369848276        9.8129310479        8.6456549776
  H        20.0839751312        8.4651673507        8.3199516605
  C        17.9201893707        9.7115564520        7.1229687003
  H        18.5953438134       10.1908578845        9.1017263862
  H        19.1112457632       11.3504034846        7.8726061433
  C        16.6531415459       10.6084929581        7.0410563583
  H        17.6600365543        8.7026870673        7.4404928466
  H        18.3577339532        9.6261389870        6.1708716232
  C        17.0364705697       11.9549362448        6.4113343256
  C        16.2789952317       11.3053461126        8.2905215453
  C        15.3917135546        9.9335637128        6.5003078995
  C        16.7773303183       13.1194924851        7.1991655951
  C        17.5139838365       12.2053299530        5.1708975353
  C        16.4206505327       12.6854379222        8.4603667565
  C        15.8848685511       10.5702317738        9.3984780198
  H        15.6215536461        9.4546880148        5.4862320375
  H        15.0861392739        9.1611596615        7.2108265910
  C        14.2683318983       10.9294800506        6.2912336099
  S        17.2123926720       14.5251811282        6.3809651496
  C        17.6414255673       13.5686911676        5.0082130077
  H        17.7314156157       11.3588020024        4.5603313405
  C        15.9974268410       13.1710199364        9.6741362562
  H        15.9116320747        9.4998338055        9.2749450786
  C        15.5336947658       11.1305728326       10.5947254641
  H        14.5893186635       11.7034286676        5.6548016699
  H        13.8086091565       11.3205164964        7.1986297472
  C        13.1165592763       10.2800640723        5.5523046193
  C        18.2122763405       14.2216924796        3.7417189366
  C        15.5184628576       12.4702394432       10.7691873190
  H        15.9933984961       14.2962717940        9.6905419066
  C        15.2072880014       10.7350746134       11.8530910781
  H        12.1547788675       10.7956215992        5.7059612369
  H        12.9675708182        9.1954681717        5.7715240989
  C        13.4395345968       10.2748150813        4.0697029919
  C        18.2459421917       15.5978214343        3.3827488637
  C        18.7112047887       13.3565051128        2.6398835315
  C        15.1472479622       13.1849446609       11.9957231053
  C        14.8366907559       11.7986649649       12.6664486800
  S        14.9047243029        9.2398592169       12.6315595864
  H        13.8239161646        9.3182865112        3.7162428166
  H        14.1052892287       11.1395746780        3.8114680543
  C        12.1583531129       10.3321933018        3.2653303393
  N        17.7811030425       16.5905572887        4.2350748668
  C        18.5008010294       16.1078280571        2.1294975607
  C        18.8845461585       13.8505694559        1.3497656115
  H        18.9317785181       12.2281636728        2.7870548314
  C        13.9214012757       14.1099955564       11.9331231713
  C        16.4208829049       13.8670305991       12.6413265733
  C        14.3017899650       11.4288589790       13.9644642896
  C        14.3873414160       10.0348263925       14.1152062537
  H        11.6128220448        9.4001543808        3.4897887812
  H        11.5263135899       11.2345899553        3.5803289874
  C        12.2834379584       10.4049784365        1.7227357009
  S        17.9171165526       18.0610077471        3.5249916077
  N        18.3663121683       17.4813127475        2.0516330519
  C        18.8299830696       15.2773707071        1.0452197340
  H        19.2640678501       13.2663985294        0.5421727398
  H        14.1162333954       15.0379005705       11.3713614747
  H        13.4757833955       14.4697054603       12.8988324335
  C        12.8720844760       13.3106244833       11.2070624977
  H        16.7388785291       14.6783335947       11.9346754206
  H        16.1102296458       14.4480718412       13.4892643791
  C        17.5348555116       12.8875148729       13.0164424834
  H        13.9452092948       12.2942505547       14.5447870363
  C        14.0300437947        9.3415079005       15.3428046070
  H        13.0800421654       11.0461426140        1.3276548063
  H        11.4076097970       10.8255551718        1.2449047473
  C        12.4600048504        9.0539424384        1.0907162725
  C        18.9947257989       15.9361334593       -0.2408207731
  H        13.1210901037       12.8688694839       10.2652802924
  H        12.5202983498       12.5004421946       11.8320118308
  C        11.6324873177       14.0972873858       10.9503366204
  H        17.9163740833       12.5260870829       12.0712678219
  H        17.2231644910       11.9838347349       13.5389838119
  C        18.6187838036       13.7327620490       13.7294728670
  C        14.0299935672        7.9699033693       15.6164717937
  C        13.7543256219       10.1519053464       16.6094200659
  H        13.2514116315        8.5322392074        1.5762162763
  H        11.6310158407        8.3462223419        1.3246992925
  C        12.7207491423        9.1181318226       -0.4085307983
  H        19.0369566745       17.0646774883       -0.1622755378
  C        19.1532281736       15.4943316916       -1.5453491058
  H        11.8022568509       14.9678993804       10.3106178402
  H        11.1471259012       14.3423076576       11.9008439161
  C        10.5358387003       13.2888202252       10.2992995737
  H        19.3178057511       14.2079843816       13.0066675704
  H        18.2017647552       14.6124529832       14.1790922749
  C        19.5892889081       13.0203991414       14.6466913291
  N        14.2802511417        7.0473678357       14.5845872587
  C        13.8168463467        7.3833565299       16.8222512607
  C        13.6592628511        9.5960996477       17.9134940268
  H        13.7573222342       11.2454120169       16.5039587351
  H        13.0384750570       10.1380898176       -0.7099410319
  H        11.8289106913        8.8208244992       -0.9081911402
  H        13.5479129949        8.4493309446       -0.6126579992
  S        19.4355024323       13.8613858285       -1.9983869486
  C        19.2255078317       16.5057305806       -2.5833118938
  H        10.8059422237       13.1095925144        9.2900795396
  H        10.4782117680       12.3612167239       10.9062604828
  C         9.2708394370       14.0461710216       10.4001753325
  H        19.7810660134       12.0076159657       14.2644435191
  H        19.1463427039       12.8832114882       15.5724728914
  C        20.9646017077       13.6982870011       14.6959408366
  S        14.3069047732        5.5811650192       15.2340688553
  N        14.0003542092        5.9446066157       16.7781823456
  C        13.5679919803        8.0761720806       18.0103080084
  H        13.4338541053       10.2595442787       18.7278086594
  C        19.6356722246       14.5651694554       -3.5946373702
  N        19.5815061353       15.9534636381       -3.7363751686
  O        19.0515753546       17.7181215866       -2.4382431186
  H         8.8387388981       13.9159840778       11.3467696184
  H         9.4043569474       15.1542401009       10.2904423936
  C         8.2636493492       13.5986085157        9.3234998159
  H        21.5451718348       13.0582505442       15.2829096118
  H        21.4742545321       13.8084775797       13.7009935306
  C        20.8929708650       15.1517514142       15.2398655931
  C        13.2696462345        7.3039015233       19.1652665051
  S        20.0088072043       13.7043596010       -5.0349577282
  C        19.7271677904       16.6756349366       -4.9948169395
  H         8.6612275273       14.0290935225        8.3951045872
  H         8.3976714569       12.5039082369        9.1992203258
  C         6.7951361809       14.0283235106        9.5656597667
  H        21.7691211586       15.2775708833       15.9234922025
  H        19.8481962959       15.3398516684       15.6357475022
  C        21.1651769470       16.2590527145       14.2299434096
  H        13.5014052904        6.2453728300       19.0791782578
  C        12.7226182649        7.7265202418       20.3422961002
  H        20.3853685615       16.1258339000       -5.6061685741
  H        20.0854229533       17.7141780654       -4.8748575174
  C        18.3930536495       16.7968495968       -5.7514555298
  H         6.3233798084       13.9598532494        8.5652315666
  H         6.8179793149       15.0375899248        9.7416281604
  C         6.1206591315       13.2549250251       10.7309969228
  H        22.0431506117       16.1018134617       13.5961198050
  H        20.2626456114       16.2077114334       13.5846026166
  C        21.2869685157       17.5882503094       14.9097547928
  S        12.0033783002        9.2968071253       20.7575130711
  C        12.4755366593        6.6518123347       21.3870562189
  H        18.2998794071       17.8465865902       -6.0511540481
  H        17.5036913752       16.6058553843       -5.1486560236
  H        18.4984253861       16.1197239849       -6.5997760230
  H         5.1114537110       13.6904332793       10.9459973386
  H         6.0845806716       12.1622015367       10.6135218100
  H         6.6449515208       13.2689421907       11.6871537163
  H        20.3031835177       17.9793784700       15.0906997261
  H        21.6613083809       17.4959277081       15.8810568659
  H        22.0260037505       18.2709984692       14.3623043436
  C        11.4420088252        8.5709165451       22.3187445993
  N        11.8120361086        7.2307556631       22.4347992546
  O        12.7238093310        5.4536681703       21.2611514237
  S        10.7604560289        9.5709442536       23.6433515768
  C        11.6394036317        6.4741663220       23.7635482389
  H        11.6287377309        5.4427531944       23.4577124595
  H        10.7311107902        6.8723607030       24.2173201067
  C        12.8654681507        6.6693721889       24.6397398553
  H        12.7419733237        7.6113812536       25.1871937680
  H        13.7075097855        6.8327739461       23.9478583072
  H        13.1427051736        5.7927592578       25.1977139847
