352
 i =    87800, time =    87800.000, E =        25.2198309455
  H         9.7753716984        7.0043187296       31.6436170180
  C        10.8017933203        6.9648918733       31.9004004020
  H        11.2074919988        7.9397583673       31.8397677675
  C        11.5130715668        6.1218055744       30.7676338709
  C        11.1271049708        6.2176404419       33.2272061649
  C        10.8008973581        4.9493627011       30.1586393579
  H        11.6727776740        6.9469853591       30.0224737384
  H        12.5078329090        5.8556802045       31.0913955260
  H        10.5813994463        5.3451713708       33.4980213614
  H        12.2339099501        5.9449170719       33.3224343708
  H        10.9351159860        7.0026461303       33.9648452831
  C         9.7449493925        5.2936862842       29.0775924274
  H        10.5459442547        4.3549726234       30.9986598540
  H        11.6293626770        4.4545981520       29.7223749607
  C        10.2712208281        5.5075335649       27.5820069444
  H         9.0643469724        4.3808656304       29.0643749466
  H         9.2398204318        6.1532203798       29.3605150852
  C         9.4170554685        4.8164925935       26.5441855133
  H        11.3010221500        5.0179738917       27.4264359352
  H        10.4310376542        6.4945657099       27.2665207397
  C         8.1853158705        5.5397193185       26.2095838800
  H         9.8469424409        4.6442091074       25.6017115216
  H         9.2850508241        3.7644916079       26.7876436682
  C         7.1617660435        4.6912382578       25.3742520092
  H         7.5723046240        5.8523406905       27.1065998625
  H         8.4068888592        6.4874169013       25.6175494125
  C         6.8597555512        3.3632078478       26.0345310496
  C         7.6111555059        3.8700371027       24.1892348811
  C         5.9254385295        5.4074688833       24.7977081675
  C         7.1150553355        2.1736061284       25.3001709203
  C         6.2996524837        3.0749898172       27.2538599256
  C         7.5736254812        2.5296854399       24.0794082492
  C         8.0524594624        4.5472014547       23.0996877952
  H         5.3169232126        4.6695818830       24.2512909576
  H         6.2538486456        6.1893235728       24.2639052432
  C         5.0255438618        5.8665369678       25.9439688556
  S         6.7050882683        0.7753287010       26.1960755813
  C         6.1210421137        1.7533756853       27.4806687335
  H         6.1980649324        3.9155226080       27.9723541053
  C         7.9056745514        2.0198495964       22.8093592689
  H         8.2960537167        5.5702520106       23.2382930211
  C         8.3963670388        4.0670458717       21.8844365520
  H         5.5155613086        5.4737128573       26.8468917648
  H         5.1300093093        6.9478141115       26.0663935306
  C         3.5426193032        5.4963232949       25.7622143580
  C         5.8139393350        1.2188629790       28.8083706570
  C         8.3646488126        2.7277821408       21.7620103223
  H         7.8452935633        0.9421185659       22.6686892709
  C         8.8614911718        4.5319079626       20.6788362583
  H         3.4807644676        4.4611914119       25.5380442673
  H         3.0986297225        6.0328432247       24.9175402481
  C         2.8338343400        5.8258969985       27.0225162193
  C         5.8733959500       -0.2167840527       29.1380863498
  C         5.2551602755        2.0800146726       29.8829086451
  C         8.6249470012        2.0793490081       20.4551359506
  C         8.8867480916        3.4340763438       19.8483821438
  S         9.2899660183        6.0200006621       19.9568803929
  H         1.9079447706        6.3866591052       26.8806004246
  H         3.3950383443        6.5509905069       27.6071720056
  C         2.4276646220        4.6205687361       27.8922440106
  N         6.2291328182       -1.2503400453       28.2451078912
  C         5.5672023160       -0.6843801928       30.3635496008
  C         5.0005795491        1.5678617605       31.1412486348
  H         5.1982975123        3.1724423187       29.7965913125
  C         7.5951576480        1.2132075002       19.7164090382
  C        10.0137005005        1.3868495900       20.3663863073
  C         9.3152688623        3.8508583472       18.5568021647
  C         9.4880999419        5.2262640950       18.4371147896
  H         2.0381232566        3.8724365430       27.2062524706
  H         3.3936331057        4.2333280119       28.4353896893
  C         1.2609644125        5.0387186786       28.7641019924
  S         6.1982288587       -2.6739985234       28.9770652246
  N         5.7042435931       -2.0731210576       30.4451399264
  C         5.2288458629        0.0895463245       31.4793603524
  H         4.5703151112        2.2337830478       31.8311347305
  H         7.4565731677        0.3496236114       20.2900051521
  H         8.0685590037        0.9634794678       18.7798795656
  C         6.2461475364        1.9415103257       19.3399058979
  H        10.2341820701        0.9018841439       19.3762979265
  H         9.8932114621        0.5183633000       21.0680985148
  C        11.2245650091        2.1901158448       20.9368455589
  H         9.4454571455        3.0997080193       17.7466261675
  C         9.8945631255        5.9309795215       17.2086818319
  H         0.7512320975        4.1303116221       29.0773949780
  H         0.5427255959        5.7222541444       28.2224959653
  C         1.6686911186        5.8208984406       30.0021824287
  C         5.0696884507       -0.4875566878       32.7471171872
  H         6.3443807010        2.7012380952       18.5756234721
  H         5.9638907451        2.5067639959       20.2432024563
  C         5.1534395302        1.0053659953       18.8867280146
  H        10.9408062547        2.8388973119       21.7337173214
  H        11.5956665590        2.9876141999       20.2218958074
  C        12.4082510287        1.3575721127       21.5386921799
  C        10.0544092146        7.3359565733       17.1193673961
  C        10.3882759915        5.1739005401       15.9963335993
  H         2.5286116705        6.4384717359       29.8031417564
  H         0.8484549852        6.4697845616       30.2922504123
  C         1.8923082062        4.9210530485       31.2547382903
  H         5.3676773992       -1.4933335728       32.7146885820
  C         4.8130737778        0.0585235102       33.9846885131
  H         4.9540947955        0.2908779620       19.7100015452
  H         5.5263571870        0.3957523038       18.0590910136
  C         3.9296845525        1.7114222142       18.3375493710
  H        12.1139205078        0.8559995971       22.4230252884
  H        12.6988680410        0.6376893782       20.7316146898
  C        13.6218171889        2.2639788266       21.8015223894
  N         9.7051727313        8.2411292843       18.1096895252
  C        10.5257976812        7.9712606214       15.9970419056
  C        10.7307980312        5.8093452073       14.8214470585
  H        10.1733912432        4.0915324882       15.9485500901
  H         1.7360446830        5.5910460574       32.1189505000
  H         1.1558900368        4.1056018429       31.2939864373
  H         2.9132240839        4.4927899871       31.1690866765
  S         4.5789246075        1.7028183333       34.4174760034
  C         4.7704161961       -0.8854688300       35.0715104178
  H         4.0414718714        2.7513902545       18.4909804117
  H         3.9160885502        1.5883870472       17.2468835862
  C         2.6312282498        1.1527633471       18.9429436774
  H        13.2837615574        3.0663707648       22.4320137843
  H        13.9075391087        2.7876651696       20.8441414371
  C        14.7461853994        1.4967692575       22.3853295488
  S        10.0600344388        9.7002176721       17.7335170380
  N        10.5185321969        9.3675240858       16.2035072212
  C        10.8294117504        7.2716684209       14.7815771668
  H        10.8916948899        5.2356268310       13.9059930840
  C         4.4321019426        1.1042127853       36.0533315648
  N         4.4592608841       -0.2461055168       36.2130833501
  O         5.0206702586       -2.0841162878       34.9338693395
  H         1.8692565864        1.8585356966       19.3019176840
  H         2.9963603498        0.8431434016       19.9119044901
  C         1.9145915646        0.1514319994       18.0241270189
  H        14.4960372112        0.9870818860       23.3805145307
  H        14.9564549054        0.7076495687       21.6922017764
  C        15.9374285574        2.4249744270       22.6857393868
  C        11.1738383145        8.0850927793       13.6322687618
  S         3.7794083301        1.9450042156       37.4083769059
  C         4.4854877535       -0.9655842230       37.4955708993
  H         1.0357507343       -0.1844618759       18.5373397924
  H         1.4976944103        0.7098150206       17.1742760341
  C         2.7538785895       -0.9978522729       17.4157368756
  H        15.5248012969        3.2681722603       23.2864379221
  H        16.2633591659        2.9385170552       21.7567730999
  C        17.0489575312        1.6355333897       23.3692355636
  H        11.1246556967        9.2068343029       13.6892379542
  C        11.5283888639        7.7360084256       12.3487175239
  H         4.0431557580       -0.4622974719       38.3317415909
  H         3.9224911428       -1.9053690710       37.5591711009
  C         5.9476815343       -1.0745038830       37.9108110479
  H         3.4648530626       -1.3086851990       18.1482273983
  H         3.2726846355       -0.8165777690       16.4533933345
  C         1.8094710653       -2.1952075224       16.9536781428
  H        17.1324686010        1.7091886446       24.4719013684
  H        16.9017362916        0.5923094391       23.1216017537
  C        18.4682352831        1.9017162912       22.9117345704
  S        11.8380225455        6.1420634326       11.8074361701
  C        11.7045836483        8.8530666010       11.3947796848
  H         6.4574560736       -0.1580976663       38.1442094829
  H         5.8950956383       -1.7675140342       38.8347492446
  H         6.4779804815       -1.6751813965       37.1151477241
  H         1.1275171639       -2.3916633202       17.7161653228
  H         2.3720741885       -3.0483292413       16.6333352512
  H         1.2088649794       -1.8842244088       16.0993942752
  H        18.7880228828        2.9449888198       22.8560633778
  H        18.6306126138        1.4873871654       21.9467317203
  H        19.1641080354        1.3773711616       23.5643465958
  C        12.4061485230        6.9234723613       10.3260385070
  N        12.2279521416        8.3352852844       10.3015710119
  O        11.4168788828       10.0172035002       11.6038615800
  S        13.1486270168        6.2112112686        8.8995755792
  C        12.5505622152        9.1935338224        9.1598907122
  H        12.8982823203       10.1203514353        9.5168938932
  H        13.2516129165        8.7569268196        8.4575923123
  C        11.3124530500        9.4358869101        8.3398662181
  H        10.3123502435        9.3564354406        8.8624980364
  H        11.3385863050       10.4513255472        8.0594071382
  H        11.3014468166        8.7826417303        7.4621247985
  H        21.2192651889       11.6387502857        3.0169604684
  C        21.7274110061       10.6268321129        3.0656727386
  H        20.9375099219        9.8787634568        3.2612201971
  C        22.7383943822       10.7231173504        4.2271883865
  C        22.3394208942       10.3068260809        1.7612120251
  C        22.0283775141       10.8634952357        5.5892032047
  H        23.3917339135        9.9056941356        4.3531883592
  H        23.3770352418       11.6562000040        4.1920718563
  H        22.2842347096       11.2163117976        1.1812269929
  H        21.8211588402        9.6160572321        1.1504736108
  H        23.2961955289        9.9204827285        1.9335919412
  C        21.1804798487        9.6593308041        6.0297669005
  H        22.8303890557       10.8555555426        6.3298349924
  H        21.4604916623       11.8025002151        5.6042500674
  C        20.1026439052        9.8944956153        7.0911015179
  H        21.8420460593        8.8256007343        6.3450269793
  H        20.7558045405        9.1811520854        5.1080203030
  C        18.6838092176        9.3749754890        6.6183358227
  H        20.0702007501       10.9011354812        7.3990906070
  H        20.3900485121        9.3204818076        7.9800831272
  C        17.6619666072        9.8982938281        7.5080060942
  H        18.4412918555        9.6412838051        5.5519380535
  H        18.6969403703        8.2566829948        6.6297062799
  C        16.5348573514       10.7977215808        6.9765535657
  H        18.0654708712       10.5628542483        8.2950263161
  H        17.1125514391        9.1123468477        7.8811224604
  C        16.9123996197       12.1043046558        6.2526024285
  C        16.0237944169       11.5598953054        8.1545044615
  C        15.4320542007        9.8715350967        6.3035355792
  C        16.6807332890       13.2346777542        7.0226660420
  C        17.4321858716       12.4074187652        4.9737902645
  C        16.1522824746       12.8989451753        8.2509977933
  C        15.5602571359       10.8552214463        9.2617951710
  H        15.8389028469        9.2511365016        5.5704413366
  H        14.9776658402        9.1739421881        7.0209725969
  C        14.2644740982       10.6744590631        5.7248074374
  S        17.0571519399       14.7064561820        6.2243665129
  C        17.5842067922       13.7796975760        4.7823307461
  H        17.5724086783       11.4798668414        4.3499004832
  C        15.7894634188       13.4669671881        9.4224288109
  H        15.5724831469        9.7839734323        9.2021285531
  C        15.2072485052       11.4297975768       10.4403998341
  H        14.6085761083       11.6977334032        5.3549744847
  H        13.5441270537       10.8937217908        6.5498812363
  C        13.5202663396        9.8699539960        4.5796344549
  C        18.1413553802       14.4135962764        3.5064825321
  C        15.3803996492       12.7782126641       10.5528436112
  H        15.7738707636       14.5473600220        9.5693466977
  C        14.9160019740       11.1393665213       11.7186019770
  H        12.4579933127       10.2148362385        4.5720981665
  H        13.6192048491        8.8617897186        4.9199069677
  C        14.0260335267        9.9736305145        3.1359990259
  C        18.2229251173       15.8226745985        3.3340660611
  C        18.5504200282       13.5282240100        2.3075660441
  C        14.9632609407       13.5066346678       11.7961935446
  C        14.7337125888       12.1919345959       12.5565191387
  S        14.6381245505        9.6341459023       12.4954736020
  H        15.1109094136        9.7512688351        3.1766411355
  H        13.8796806668       10.9661795150        2.7244342941
  C        13.4055640588        8.9321788024        2.2446903203
  N        17.7503933179       16.7964672771        4.2374423780
  C        18.5219205935       16.3259654050        2.0983267438
  C        18.8333422778       14.1020740305        1.1022060399
  H        18.4014369618       12.4045725620        2.3974058422
  C        13.6754435650       14.3246623558       11.5930177000
  C        16.1336646579       14.3981328349       12.3486192435
  C        14.2568346869       11.7819483179       13.8608400417
  C        14.1173689001       10.4301020027       13.9299590039
  H        14.0420144213        8.0916415290        2.3378636052
  H        12.4329049628        8.7056201997        2.6925570701
  C        13.3223546855        9.3384860287        0.7803066531
  S        17.8138780417       18.2755040660        3.5092482078
  N        18.2987781725       17.7390640204        2.0624948305
  C        18.8023480456       15.5982095585        0.9562206264
  H        19.1020130629       13.4956432021        0.2882385968
  H        13.7803213572       14.9631463363       10.6845385494
  H        13.5407318403       15.0523944827       12.3970965898
  C        12.4491354233       13.5033603412       11.3569184204
  H        16.3360617895       15.2396624746       11.6103159558
  H        15.8354266304       14.8285509456       13.3242640847
  C        17.3814874551       13.6099247948       12.5377457310
  H        14.0393036556       12.5824936184       14.5853911229
  C        13.9172034318        9.6742104996       15.1712774061
  H        13.1406752301        8.4748486271        0.1701752636
  H        14.2209509991        9.7619061328        0.3635121283
  C        12.1891573022       10.3225419701        0.3753287934
  C        19.1113935533       16.2193373052       -0.3022399048
  H        12.6417336230       12.7428061863       10.5772370100
  H        12.0851702292       12.9761515028       12.1955584525
  C        11.2889387250       14.4546730206       10.9080742967
  H        17.9672733694       13.7668170513       11.6017065917
  H        17.1557947482       12.5474152799       12.8121758231
  C        18.2535616170       14.2363167009       13.5423011653
  C        13.9709284690        8.2869013497       15.2964008653
  C        13.5920804614       10.4073732987       16.4840917221
  H        11.2533204557        9.7619401787        0.4797453283
  H        12.1740650338       10.9751307209        1.2306823549
  C        12.2675195436       10.7736596973       -1.0968627294
  H        19.2725379880       17.2943477262       -0.1951981003
  C        19.4239942122       15.7090103838       -1.5092133850
  H        11.6892912326       15.3994967826       10.5714290343
  H        10.6092712078       14.5875972479       11.7482660455
  C        10.5499607404       13.9011732052        9.6875392400
  H        18.7432002088       15.0950654714       13.1061621972
  H        17.5875137209       14.5261273711       14.3110756325
  C        19.2915712447       13.3578196189       14.1576178025
  N        14.2534828050        7.3777279880       14.2380789280
  C        13.6205353926        7.6300590254       16.4650325201
  C        13.3096382739        9.7123769811       17.6596121382
  H        13.6507093535       11.4772486167       16.4354159723
  H        12.3382139981        9.9904136801       -1.8339901573
  H        13.2164444868       11.2816285014       -1.0414554660
  H        11.5866418022       11.5452488520       -1.4294868777
  S        19.6997683516       14.0326878359       -1.9730301385
  C        19.4293333413       16.6410862150       -2.6277206856
  H         9.8452638810       14.6812815328        9.3967779420
  H        11.1508725278       13.5432593943        8.8500375923
  C         9.7276597415       12.7429086109       10.1254057998
  H        19.8835499061       12.9642572420       13.3465264538
  H        18.7082032757       12.5754339162       14.5752550082
  C        20.1678139010       14.1157055258       15.1635711512
  S        14.1131132882        5.8211833369       14.7773014998
  N        13.8351518671        6.2527636452       16.3261229901
  C        13.2877670369        8.2519386835       17.6804594439
  H        13.1887785818       10.2766411826       18.5935018818
  C        19.9014782794       14.6292678006       -3.5988265453
  N        19.8491020252       16.0176960245       -3.7498868392
  O        19.2870012018       17.8501939672       -2.4651250358
  H        10.2266210426       11.7958067088        9.8328682066
  H         9.5206596912       12.8466440158       11.1731611158
  C         8.3436295239       12.7617257650        9.4519709353
  H        19.4372222044       14.7104298345       15.7207749537
  H        20.5157981675       13.5070198897       16.0545076591
  C        21.1424608455       15.1980457856       14.6071462111
  C        13.1078135834        7.5049426488       18.8227270283
  S        20.1297281437       13.6434089540       -5.0599299262
  C        19.8271034693       16.7960057636       -5.0552832934
  H         8.3688847788       13.2961087965        8.4963188419
  H         7.9911743286       11.7728536957        9.1134073185
  C         7.3518622632       13.5141837732       10.2883438880
  H        20.5616644211       15.9523409881       14.0227799216
  H        21.9055325314       14.6956586182       13.9736489667
  C        21.8596470736       15.9139426998       15.7160274186
  H        13.5373322710        6.5705702484       18.7796442425
  C        12.5072405299        7.7054881840       20.0832633035
  H        20.4468329528       16.3852226372       -5.8214492438
  H        20.1043212866       17.8190002573       -5.0038959229
  C        18.3906713396       16.7548148909       -5.6063502265
  H         7.7812066128       14.3920944387       10.7543668191
  H         7.1331171192       12.7345785240       10.9939868894
  C         6.2022642309       13.8485952398        9.3960201131
  H        21.2941028755       15.7681299949       16.6938332285
  H        22.7276204750       15.3110955538       15.9828375480
  C        22.3020392104       17.3358475546       15.3315314534
  S        11.8444459129        9.2275322664       20.5883517215
  C        12.5192297230        6.6173868045       21.0543483478
  H        17.6664780757       17.0534049227       -4.8310034481
  H        18.2102448977       15.7605219868       -6.0382775115
  H        18.2877796288       17.4400132493       -6.4655923367
  H         6.6657059603       14.4622271054        8.5961479324
  H         5.7748958602       12.9820484743        8.9262274359
  H         5.4622177977       14.3767311768        9.9981843129
  H        23.0487008225       17.3536187810       14.5153954800
  H        21.4213453499       17.8862055304       15.0531205301
  H        22.7557038499       17.9492337107       16.1388810027
  C        11.6181143838        8.3827779487       22.1826341609
  N        11.9216071421        7.0701324898       22.1500656244
  O        13.1115505040        5.5043174730       20.9133994620
  S        10.9869391416        9.0153284140       23.6890255152
  C        11.7846296659        6.1362690023       23.3295423115
  H        11.6637188546        5.1423082074       22.9170199063
  H        10.8908420049        6.4100311377       23.8890977513
  C        13.0152496410        6.1293898539       24.1524020143
  H        13.0595141619        5.2473422315       24.7750389304
  H        13.1586058073        7.0627464072       24.6883456246
  H        13.8571522916        5.9433636802       23.5618508569
