352
 i =    86000, time =    86000.000, E =        25.1236310680
  H         9.9957810603        6.4968340311       32.2053095904
  C        11.0761763275        6.6315543354       32.2498935553
  H        11.2156823179        7.7040317709       32.3451465058
  C        11.7567502331        6.3495737160       30.9680306650
  C        11.5205564828        5.9530235258       33.5221726680
  C        11.0828871346        5.2117620712       30.1575342340
  H        11.6891313281        7.1992584984       30.3578961642
  H        12.7940879402        6.0858466529       31.0978887793
  H        10.6360913644        5.5967037795       34.0466993806
  H        12.1868164281        5.1204229440       33.2786040913
  H        12.0130169362        6.6701100212       34.1254184900
  C         9.8950308420        5.7596018088       29.4408779428
  H        10.8428366676        4.5591830912       30.9826701652
  H        11.7616784723        4.6828942513       29.4541761703
  C        10.1933862378        6.2384348565       27.9797713868
  H         9.0944588949        5.1193526904       29.3824646039
  H         9.5343903585        6.7224791157       29.9914526511
  C         9.4045112161        5.4581437303       26.9275147505
  H        11.2161731846        6.3286791074       27.8058013020
  H         9.7995354978        7.2060479248       28.0787171663
  C         8.3046276503        6.2141289403       26.1420533503
  H        10.1054978907        5.0483574899       26.2461337887
  H         9.1203574718        4.4931272917       27.4077149413
  C         7.3263837701        5.3732729419       25.3248414532
  H         7.8990110568        6.8966710302       26.8308076032
  H         8.7910845898        6.9401053014       25.5592700747
  C         7.0537079308        4.0303257098       26.0621640853
  C         7.9349083494        4.6161678643       24.2167547121
  C         5.9953609682        6.0198361682       24.8290143788
  C         7.5315306841        2.9536410029       25.3706630310
  C         6.4679542486        3.5898222696       27.2385681994
  C         8.0540759812        3.2831137553       24.1571954635
  C         8.5153908859        5.2670770339       23.1840790572
  H         5.5067089945        5.4095702994       24.1860508474
  H         6.2612837111        6.8716863364       24.2435277020
  C         5.0130606700        6.4895798480       25.9430730671
  S         7.3125201266        1.4086914678       26.1894465801
  C         6.5202392819        2.2266139998       27.5450457059
  H         6.0912371512        4.3691511619       27.8788677566
  C         8.4672677811        2.6301569371       23.0874582657
  H         8.4595628637        6.3833977414       23.2177724739
  C         8.9055824386        4.5772276945       22.0229959835
  H         5.1296902836        5.8371297995       26.8468876119
  H         5.2503750983        7.5246732575       26.2957313522
  C         3.4890782161        6.3568762525       25.5558150179
  C         6.2295567170        1.6433623583       28.8246559147
  C         8.8887212974        3.2305624211       21.9383128374
  H         8.5368979072        1.5691476434       23.1676914613
  C         9.2752118429        4.9815488998       20.7778930522
  H         3.3722441439        5.3076637289       25.1658352186
  H         3.3215164864        7.0521796994       24.7009460239
  C         2.5650603037        6.6677647596       26.6880613517
  C         6.1969014476        0.2922806076       29.1546024416
  C         5.8340662730        2.5647582312       29.9678933849
  C         9.3224671176        2.4614134618       20.6694238846
  C         9.4313773975        3.8377085619       19.9440609531
  S         9.5200957123        6.4833766545       19.9749619232
  H         1.6392598400        6.9553314176       26.1931741320
  H         3.0011454655        7.5251602599       27.2374908094
  C         2.2883321537        5.3918413109       27.5675412948
  N         6.4532012187       -0.7055556587       28.2332810226
  C         5.7935665106       -0.2262227153       30.3852278493
  C         5.4207880466        2.0668784362       31.1668575374
  H         5.7771620405        3.6360455178       29.7483679142
  C         8.1757503061        1.6061436573       20.0090419950
  C        10.6416403869        1.7641090133       20.9765979314
  C         9.7790517109        4.2959755932       18.6210324409
  C         9.9259840724        5.6557462088       18.5007836748
  H         2.0543099816        4.6203476716       26.7806580598
  H         3.1632679707        5.0515082235       28.0649207397
  C         1.1346773046        5.4820261656       28.5835330759
  S         6.4325833459       -2.1487937449       28.9145922898
  N         5.8634441802       -1.6159877450       30.3494022391
  C         5.3929244045        0.5990315299       31.4688356868
  H         4.9540884127        2.7341513052       31.8627886274
  H         7.8795071501        0.8450576893       20.7018409856
  H         8.5578147901        1.0792314051       19.1229555369
  C         6.9153679434        2.4320098120       19.7135107964
  H        10.9684630319        1.3921404908       20.0770697647
  H        10.3717842479        0.9547776149       21.6519298359
  C        11.7656583519        2.6604231359       21.4501143484
  H        10.1697718377        3.5688810749       17.9154077529
  C        10.3010278727        6.3947133219       17.1845666919
  H         0.7664325804        4.4389638483       28.9268427456
  H         0.2871028976        5.9315622055       28.1323628940
  C         1.5889180715        6.3174289136       29.8616274465
  C         5.0814930580        0.0098139627       32.7056164014
  H         7.0711424864        3.1919912569       18.9487520993
  H         6.6379201116        3.0428076714       20.5811155452
  C         5.6758332700        1.5280542923       19.3488590977
  H        11.5579254266        3.2534748028       22.2897504360
  H        12.0958471666        3.2897397477       20.5887490759
  C        13.0407618896        1.7819797142       21.7661945889
  C        10.3953639376        7.8091957276       16.9825119358
  C        10.4796289648        5.5239728347       15.9838851215
  H         1.8896748291        7.2837715503       29.5838991095
  H         0.7614260281        6.4301258577       30.5190109359
  C         2.6143936588        5.5444242276       30.7060833435
  H         5.3032623056       -1.0900807014       32.7728200484
  C         4.6806811213        0.4919256644       33.8908640866
  H         5.4607981346        1.0285217497       20.2572919385
  H         5.9396613450        0.8133591456       18.5677673338
  C         4.4110525614        2.3594616423       19.0409905132
  H        12.7103958351        0.9355846584       22.4777586289
  H        13.3197390392        1.2166834528       20.8796352140
  C        14.1617475330        2.5507756770       22.4001384864
  N        10.2322144542        8.7235430997       18.0108437185
  C        10.5786032660        8.3571143358       15.7215096487
  C        10.6321784594        6.1001094544       14.6887967672
  H        10.3383746365        4.4041784095       15.9720965610
  H         3.3255093431        6.2384547707       31.1253446239
  H         2.1019660258        5.0624950813       31.5095649066
  H         3.0418534355        4.8576265525       30.1109660713
  S         4.4203126293        2.1365597546       34.3299950894
  C         4.6249565079       -0.4684221748       35.0027972982
  H         4.4856637429        3.3562266931       19.5734975949
  H         4.5552900771        2.6856509264       18.0714620746
  C         3.1708198472        1.5183021330       18.9911811100
  H        13.7825523505        3.2378058986       23.1495853599
  H        14.5809643940        3.2813250054       21.6485874880
  C        15.3956352106        1.6760765739       22.8729867961
  S        10.3495643671       10.2312443419       17.3838457768
  N        10.6499900134        9.7676292986       15.8239922499
  C        10.7617940619        7.5917432282       14.5589221371
  H        10.7303805803        5.4829060957       13.8269206966
  C         4.4022044046        1.5086984103       36.0165315253
  N         4.2860855754        0.1298656760       36.1654013883
  O         4.8444761283       -1.6608778477       34.9906331802
  H         2.3797448328        2.2212039809       18.9201639884
  H         3.0627175479        1.1096673473       19.9899270125
  C         3.0746283055        0.5461344188       17.8371676339
  H        15.0969808938        0.9178277471       23.6045486748
  H        15.7463655427        1.0539573743       22.0781087676
  C        16.6187597355        2.4192155023       23.2741036998
  C        11.0188220386        8.3381228965       13.3310711354
  S         3.8891373030        2.5024833064       37.3362145981
  C         4.2579362502       -0.5421723131       37.4215232600
  H         2.1182638329        0.7735336403       17.4070666159
  H         3.8439004698        0.7693460122       17.0912826867
  C         2.9527859128       -0.8481417518       18.3824686396
  H        16.3795295036        2.9100392880       24.2404019984
  H        16.8361146840        3.2046390800       22.6088983507
  C        17.8897303699        1.5624296354       23.4788663616
  H        10.7834435124        9.3615562513       13.2905899462
  C        11.6007985975        7.9024427465       12.1217878846
  H         3.5674788774       -0.0847530531       38.0967313034
  H         3.8259526233       -1.5584649503       37.2923467693
  C         5.6235928580       -0.5952414754       38.0763046999
  H         1.9040304418       -0.9511228604       18.5305729985
  H         3.4820138786       -0.9605563243       19.3025405166
  C         3.3879785355       -1.8538183815       17.3002736333
  H        18.4274486546        2.1512071210       24.2061035407
  H        17.5828308208        0.6284546472       23.9047402701
  C        18.6551994575        1.4573059090       22.1527557856
  S        12.3508507103        6.4517209513       11.7178990016
  C        11.6800393699        9.0127786822       11.1302011195
  H         6.2391767774       -1.2985980402       37.5424161222
  H         6.1354066737        0.3694585321       38.1658106157
  H         5.4721872022       -1.0434824464       39.1171169098
  H         3.4128594591       -2.8559833910       17.6948279366
  H         4.2793692727       -1.6338262728       16.7583585116
  H         2.6024098426       -1.9116859576       16.5779781470
  H        19.5725368937        0.8757808048       22.3551171625
  H        19.0080355727        2.4188146176       21.8623716285
  H        17.9644627938        1.0015417844       21.4035206960
  C        12.6035261009        7.2200510280       10.1255224048
  N        12.2907335036        8.5414966925       10.0148613746
  O        11.3514977796       10.1978537454       11.3769309306
  S        13.7067570668        6.6242357214        8.9056574067
  C        12.5164527742        9.3028285075        8.7811856217
  H        12.7749871982       10.3488262500        8.9749618455
  H        13.3270947782        8.9829347368        8.1202963916
  C        11.2468886405        9.2680687289        7.9494523129
  H        10.4013059959        9.3073723490        8.6893410063
  H        11.2156072633       10.1631875910        7.2642705049
  H        11.3977851285        8.4163495302        7.2226840944
  H        21.5118635005       10.9558339724        3.4911824217
  C        21.8388208469        9.9768540719        3.4113773993
  H        20.9868502836        9.3473499845        3.6849933235
  C        22.8801701095        9.9174072402        4.4927684331
  C        22.4229845990        9.8562680909        2.0041338704
  C        22.4402766965       10.0155131951        5.8637108301
  H        23.4084347642        9.0054452359        4.4613182215
  H        23.4719056783       10.7740085602        4.3004922752
  H        22.8990379961       10.7429521155        1.4897003970
  H        21.7869229808        9.4280747624        1.2800968570
  H        23.2183007302        9.1511098834        2.2022555142
  C        21.7448288203        8.7370319146        6.4361774224
  H        23.2659799335       10.2911880877        6.4924141526
  H        21.7274974460       10.8379829201        5.9921442082
  C        20.6431462413        8.9859767225        7.4904612008
  H        22.4231973248        8.0103866894        6.8843151298
  H        21.3045536841        8.2103856793        5.5652092045
  C        19.2437620847        9.1308240678        6.8366760172
  H        20.9462964102        9.8811234336        8.0261471960
  H        20.6791201746        8.1547072731        8.2211976078
  C        18.1395790465        9.4262389748        7.8298156196
  H        19.3201476413        9.8052852509        6.0769113935
  H        19.1581225777        8.1407901634        6.3922216664
  C        17.1106172486       10.3887920416        7.3429526867
  H        18.7383238170        9.8124899498        8.6878154646
  H        17.6595169405        8.4519167653        8.0159281174
  C        17.4834109533       11.6371458844        6.5702130189
  C        16.6000629310       11.1539761952        8.4682546940
  C        15.9164393318        9.6119868276        6.6189155790
  C        17.2842090933       12.7862780694        7.3091827537
  C        17.9725850727       11.9136935814        5.3172121028
  C        16.6718509981       12.4925593449        8.4993104820
  C        15.9045074687       10.5790097615        9.5250981622
  H        16.4584605010        9.0385230967        5.8287220442
  H        15.4913799347        8.8235126123        7.3179069829
  C        14.7849271338       10.4896886267        6.0054363760
  S        17.7015253161       14.2113078825        6.4879552735
  C        18.2576321863       13.2376398990        5.1308649159
  H        18.1743685485       11.0859509796        4.6190148812
  C        16.2372913612       13.1683392752        9.5887146361
  H        15.8275098952        9.5148990248        9.4157995588
  C        15.5552599504       11.2402857926       10.6870103176
  H        15.2123865764       11.2914829942        5.4607346146
  H        14.1007233013       10.9122238312        6.7664632114
  C        13.8058344127        9.9287057041        4.9716898623
  C        18.7326260308       13.8482909797        3.8611664406
  C        15.7108037864       12.5615824244       10.7395557887
  H        16.4730609637       14.2187596121        9.6047506325
  C        15.0774413312       10.8789565531       11.9259007855
  H        12.7192749046       10.1067031201        5.2420580054
  H        13.6674672474        8.9114132572        4.9978216593
  C        14.2356561860       10.3941422827        3.5556688607
  C        18.7451657417       15.2005811358        3.5306759705
  C        19.2318602761       12.9931326090        2.7452841606
  C        15.3348624303       13.3397462424       11.9765549287
  C        14.9602284096       12.0066757362       12.7417544342
  S        14.6688744207        9.3672325229       12.7507615211
  H        15.3015323618       10.2936929954        3.3913875117
  H        14.0371691078       11.4611646667        3.6861818633
  C        13.3494355370        9.8752944459        2.3656361637
  N        18.3527731513       16.2537147745        4.4461142243
  C        19.0343563888       15.7411374758        2.3268318117
  C        19.4396538289       13.4926735478        1.4897622798
  H        19.1713520415       11.9454744780        2.9762813880
  C        13.9916339989       14.1788900594       11.8999817719
  C        16.4629351250       14.1197959268       12.6757207634
  C        14.4903771052       11.6418048561       13.9621366382
  C        14.2718948723       10.3008920585       14.1532505570
  H        13.0813746413        8.8108951389        2.5551664953
  H        12.3833065782       10.4198116108        2.4011234787
  C        14.0759065256       10.1212316187        1.0540654668
  S        18.4774817408       17.7097785482        3.7503181336
  N        19.0213568623       17.1418648276        2.3031521156
  C        19.3303329549       14.9280025768        1.2211222899
  H        19.7477963396       12.7935330528        0.6926234574
  H        14.1674440466       14.9073342499       11.0976161640
  H        13.7662419676       14.7954649335       12.8129308218
  C        12.8461983401       13.2720153895       11.4375369810
  H        16.8917952862       14.9297333405       12.0307384192
  H        16.0789829039       14.6342662185       13.5546117627
  C        17.6461186688       13.2141564804       13.1763707749
  H        14.4134105781       12.4551692093       14.6539120889
  C        13.9327967449        9.5964220472       15.4888625457
  H        14.9871871332        9.5626585850        1.0804544373
  H        14.2893057753       11.1551039876        1.0360920551
  C        13.0693917959        9.8950950828       -0.0905623252
  C        19.4588479857       15.5861443410       -0.0651942031
  H        13.2379839638       12.5476789156       10.6930809667
  H        12.4876612821       12.6773605241       12.2119232182
  C        11.6819196807       14.1045575257       10.9154066955
  H        18.0316512606       12.6866320717       12.2372447693
  H        17.2449112296       12.5270768689       13.8469279106
  C        18.9223993732       13.9277242250       13.5765424974
  C        13.8165504484        8.1931842935       15.7399462564
  C        13.7460765772       10.4925634604       16.7131341336
  H        13.0627378612        8.9492837604       -0.5574264189
  H        12.0416026367       10.0775457516        0.2541610677
  C        13.2985431501       10.8280966772       -1.2373230271
  H        19.1993054955       16.6296952440        0.0729074739
  C        19.6741288999       15.2405809101       -1.3932197483
  H        11.8562637064       14.7975900887       10.0826913134
  H        11.4667936590       14.8990180169       11.6717585895
  C        10.4442779741       13.2413096403       10.7133188307
  H        19.4770122136       14.1694396754       12.6315447842
  H        18.6515571806       14.8880379769       14.0205057777
  C        19.7910813938       12.9847921668       14.4271769992
  N        14.0486690599        7.2282888451       14.7345209802
  C        13.7171503022        7.6586903433       16.9757349560
  C        13.5251228356        9.8496111564       17.9388314916
  H        13.9133666220       11.5848692464       16.7099166842
  H        13.1719651541       10.2446724039       -2.0834471556
  H        14.1747261836       11.3959209887       -1.2704355192
  H        12.4419696053       11.5007735068       -1.3133068756
  S        20.0845099010       13.6722260243       -1.9195251263
  C        19.4717228938       16.2301461460       -2.3840912377
  H        10.7185463481       12.4339196576       10.0782756186
  H        10.0934117434       12.9035878721       11.6736892870
  C         9.3389255210       14.0165526868       10.0740275821
  H        20.1774647304       12.1834153311       13.7512113905
  H        19.0838140692       12.4028763388       15.0787450214
  C        20.8610240589       13.6650561270       15.2908783245
  S        13.9984890196        5.7909440096       15.3867330036
  N        13.7044455295        6.2122476900       16.8979516038
  C        13.4728219452        8.3663480297       18.1260128526
  H        13.5111167645       10.3829515001       18.8940931785
  C        20.1395765363       14.4222912253       -3.5118047557
  N        19.9221543646       15.7343580643       -3.5929812571
  O        19.0725531754       17.3869189200       -2.2037301488
  H         8.8666939703       14.5824205240       10.9175154275
  H         9.6342157078       14.7356942232        9.2756342224
  C         8.3281694492       13.0085415645        9.4993361421
  H        20.3675592120       14.1262203629       16.1865012047
  H        21.5407986677       13.0216971291       15.7586114605
  C        21.6822849054       14.7309317595       14.5390712608
  C        13.1789409875        7.6797940705       19.3356797170
  S        20.4241443763       13.6807162320       -5.0642189795
  C        19.9637453601       16.5877985681       -4.7641461722
  H         8.7617863005       12.4974921291        8.6919227677
  H         8.0829005108       12.1625279598       10.1211544093
  C         7.0456520369       13.6466734189        8.8716348337
  H        21.4918892258       14.7612787282       13.4819472384
  H        22.7128841389       14.4414121410       14.6164304950
  C        21.5406695304       16.1283461898       15.1457911453
  H        13.1569422510        6.6583774663       19.1090681890
  C        12.7042558209        7.9941430006       20.5534257628
  H        20.8171258981       16.3074374297       -5.4114300390
  H        20.2269086102       17.6137846812       -4.5112356168
  C        18.5515122527       16.6199866801       -5.4642898091
  H         6.7385902808       13.0410057734        7.9916131789
  H         7.2496256959       14.7059188867        8.5835143157
  C         5.9087735777       13.5499477735        9.8897868924
  H        20.4752181910       16.5047155774       15.0671480562
  H        21.8619637463       16.2028561625       16.2127356714
  C        22.4646953575       17.0768758997       14.5646145127
  S        12.0712991148        9.5239902032       20.9070268752
  C        12.4945055643        6.9683823281       21.5903693954
  H        18.1939477068       15.6129583804       -5.7484819306
  H        18.6113213662       17.2899088582       -6.3158799698
  H        17.7669608577       17.0200818836       -4.8199112736
  H         5.5453782680       12.5429856087       10.1304458331
  H         6.1745361203       13.9911538592       10.7523627916
  H         5.0588969503       14.1258670575        9.6124809094
  H        22.3211076255       18.0829921201       14.9466008809
  H        23.4781000452       16.8242386188       14.9149398639
  H        22.4430010113       17.0453888657       13.5085877030
  C        11.6333648069        8.8107364608       22.5022075184
  N        11.7728590881        7.5044231234       22.6057644093
  O        13.0340643973        5.8601593878       21.5060216737
  S        10.9319536933        9.7007871105       23.7877622570
  C        11.5562142856        6.6721426303       23.8133651366
  H        11.2745268535        5.6243792058       23.5691012694
  H        10.7765866710        7.1267474817       24.3399677264
  C        12.7660648112        6.6911040012       24.7864402738
  H        13.6395066151        6.0833354979       24.3731221927
  H        12.5534628611        6.3757788763       25.7801026684
  H        13.1880415627        7.6982411096       24.8344967650
