352
 i =     6000, time =     6000.000, E =        28.7318378746
  H        12.1699342730        5.5048555548       31.8896179053
  C        11.0948989390        5.6701852651       32.0733445603
  H        10.5994777582        4.7305082869       32.1135182761
  C        10.5322754145        6.4648380586       30.9194581231
  C        10.9742291551        6.4300235989       33.4049392189
  C        11.0872929538        6.0807604959       29.5805594122
  H         9.4473604733        6.3911316188       31.0635232150
  H        10.7935476354        7.4827091422       31.1910534138
  H        11.7277925600        7.2120296078       33.4363212452
  H         9.9980203178        6.8048401995       33.5684148573
  H        11.1851209678        5.6272511391       34.0967288643
  C         9.9429099258        5.9302408870       28.6425842583
  H        11.5487170891        5.0953961431       29.6451239047
  H        11.9336322334        6.7017842848       29.2180960945
  C        10.5680674284        5.8945136844       27.2296057114
  H         9.3924883485        4.9246994103       28.7545636677
  H         9.1914544770        6.7024386877       28.7665225385
  C         9.5538750568        5.1905546520       26.3162030824
  H        11.5486245019        5.4793614578       27.2571182380
  H        10.7429263235        6.9207596474       26.8476559389
  C         8.4289823743        6.0620860576       25.9162177726
  H        10.1304979148        4.8232831994       25.4525388735
  H         9.2703427537        4.2323864051       26.6607303182
  C         7.2113193543        5.2692032856       25.3067975240
  H         8.2133368466        6.7487008344       26.7315807977
  H         8.8376221518        6.6907344412       25.1589728093
  C         6.8258413605        3.9246011998       26.0422323724
  C         7.7749767929        4.5003751310       24.1485592451
  C         6.0147261982        6.2258724337       25.0755969476
  C         7.1488477292        2.7659927261       25.3010296475
  C         6.3336293993        3.5150271432       27.2891116078
  C         7.7855144552        3.1491399775       24.0734950113
  C         8.2365494711        5.1076419259       22.9834496571
  H         6.3848482796        6.9352080677       24.3213048658
  H         5.7829539271        6.7770612575       25.9326639708
  C         4.7570573652        5.3798844062       24.7402228379
  S         6.8710607067        1.2537552417       26.0851180744
  C         6.3394985400        2.1597625453       27.4672276312
  H         6.0248521013        4.2684037280       27.9948041091
  C         8.2251003867        2.5268501772       22.8817613180
  H         8.3384866840        6.2002923290       22.9272316517
  C         8.5987272735        4.4886343750       21.8067997047
  H         5.0742303476        4.6656189531       23.9715414818
  H         4.3641029802        4.7801759799       25.5694953034
  C         3.6066981616        6.3370613218       24.4833571168
  C         5.8725952644        1.5091754637       28.6970769862
  C         8.7170002204        3.1473698242       21.7383995337
  H         8.1172526310        1.5227636287       22.8224867563
  C         9.0695339225        4.8885780682       20.5313305927
  H         2.9056556896        6.0087520924       23.6122535826
  H         4.0339862073        7.1893914139       24.0018586488
  C         2.9084761510        6.6285877051       25.8276156915
  C         5.8582319067        0.1218333453       28.9448467423
  C         5.4456900492        2.3226227167       29.9004751386
  C         9.0906545753        2.4199832065       20.4836287792
  C         9.2800957323        3.7607930023       19.7446646286
  S         9.2337944317        6.4189687071       19.7706075996
  H         2.2774014286        7.4749721518       25.6250646963
  H         3.6091752543        6.8827897563       26.5884146253
  C         2.0689379135        5.3788729414       26.2803762242
  N         6.1447317767       -0.8263140697       27.9640117864
  C         5.4472519287       -0.4676067368       30.1372888713
  C         4.9804907362        1.7700615418       31.0311093037
  H         5.3790069141        3.3907616393       29.7879125883
  C         7.9163557784        1.5689028511       19.9166585616
  C        10.3581189488        1.5963328079       20.6289434127
  C         9.5967749475        4.1619645429       18.4102634170
  C         9.6384676679        5.5522987810       18.3319169878
  H         1.4649650117        5.1900803883       25.4818144373
  H         2.5702198035        4.4899841889       26.6461240831
  C         1.1200539251        5.7181591672       27.5086595595
  S         6.1028232720       -2.3215387215       28.6756331703
  N         5.4678929070       -1.8593062173       30.0602581469
  C         5.0677184159        0.3429993094       31.3279988176
  H         4.6207617775        2.5358795174       31.7695087153
  H         7.6405710559        0.9088702805       20.7619984911
  H         8.1483626481        0.8312305062       19.1499234481
  C         6.6620843548        2.3859935645       19.4985765797
  H        10.6208223924        1.2216470213       19.6846505724
  H        10.1718462430        0.7869910294       21.3177794842
  C        11.6040903056        2.3859636153       21.1411730121
  H         9.8771421943        3.4752545747       17.6631906582
  C         9.9265860750        6.3035045932       17.0435485178
  H         0.4725932692        4.8885326794       27.7685500770
  H         0.5652408760        6.6564216200       27.1081021406
  C         1.9081682143        6.0838360353       28.7944916048
  C         4.7439533587       -0.3137564436       32.5086632074
  H         7.0011086143        3.1765849274       18.7842219104
  H         6.3041644808        2.8811150076       20.3607547647
  C         5.6901296102        1.4109759840       18.8016216631
  H        11.2932068486        2.7706280531       22.1216962277
  H        11.8919508137        3.1504122114       20.4889289640
  C        12.7864739564        1.4312041237       21.4130371134
  C         9.9182960188        7.7481925830       16.9670078796
  C         9.9830151521        5.5525174081       15.7495783865
  H         2.6125608023        5.3527534442       29.1671481670
  H         2.4557284625        7.0215005974       28.6581623582
  C         0.9733843424        6.1256588021       29.9718249743
  H         4.8603741534       -1.3214050881       32.3991721092
  C         4.5219841751        0.1992391369       33.7907043324
  H         5.6118913425        0.4535021697       19.3127248975
  H         6.1372602947        1.3562206753       17.7855516563
  C         4.3051216845        2.0177625907       18.6291174875
  H        12.6460450816        0.6830246758       22.1780615379
  H        13.0005337543        0.7361091461       20.5343041694
  C        14.0488782960        2.2470145249       21.6029711522
  N         9.7639789601        8.7101096722       18.0007318399
  C        10.2920194999        8.3508629970       15.7568657468
  C        10.2503502829        6.1827139465       14.5917369236
  H         9.8396731856        4.4613456799       15.7748969955
  H         1.3838195007        6.8985694694       30.6604576230
  H         0.0020598724        6.5597622950       29.8206285090
  H         0.7546271220        5.1299284093       30.3285676833
  S         4.1719062899        1.8303576771       34.1555084161
  C         4.4714584632       -0.7947334029       34.8724705170
  H         4.1129793457        2.6362876122       19.4675924610
  H         4.2002826750        2.6635800044       17.7791582782
  C         3.2216567731        1.0040419470       18.5650375098
  H        13.8232516152        3.2164578291       22.0985631453
  H        14.4403328655        2.5186467047       20.6042651062
  C        15.1737380654        1.4648699023       22.3284081035
  S         9.8967763771       10.1881926994       17.3346045416
  N        10.3545750481        9.7471958322       15.8330790914
  C        10.6134859174        7.6463564771       14.5472580224
  H        10.2142240531        5.6553361778       13.6217364122
  C         4.1573754593        1.2480809301       35.8607837101
  N         4.0309419091       -0.1122190908       35.9696447968
  O         4.5689666371       -2.0258451650       34.7673719487
  H         2.2900138133        1.5820147462       18.6645399205
  H         3.2598967243        0.3646307358       19.4560385672
  C         3.0346929496        0.1246147928       17.3066879113
  H        14.6418519015        0.7937358881       22.9638276341
  H        15.7008502301        0.8986675752       21.5000453165
  C        16.1026186005        2.5573877759       22.9352585882
  C        10.9057863182        8.4575735312       13.3776711475
  S         3.5944675655        2.1603665670       37.2431060540
  C         3.7763793069       -0.8907641174       37.1089156019
  H         3.0326528837        0.7421796815       16.4279595792
  H         3.9349289662       -0.4893724969       17.2151168236
  C         1.7990588041       -0.7305374833       17.1998471183
  H        15.6942288803        3.1751668265       23.7467495535
  H        16.3394150313        3.1063500063       22.0291117918
  C        17.4675357167        1.8814108005       23.4335633719
  H        10.7485514728        9.5561696199       13.4381388609
  C        11.4936796547        8.1167892962       12.2405674782
  H         2.9247324061       -0.5298235559       37.6706416694
  H         3.5903355274       -1.9292062080       36.8435817871
  C         5.1218822579       -0.8166093838       37.9355604537
  H         1.3684343588       -0.7786210956       16.1503439154
  H         1.0127302519       -0.3669425307       17.8353220438
  C         1.8697012356       -2.1051117126       17.8360563102
  H        17.7053449269        2.3470999447       24.3597784884
  H        17.2757134827        0.8966297868       23.8948539186
  C        18.4566385750        1.9012205651       22.2874746347
  S        11.8909404278        6.5353949676       11.6745839268
  C        11.5507237024        9.1873272732       11.1908470356
  H         4.9289039039       -0.6583281974       38.9860190983
  H         5.6557859275       -1.7215825674       37.9426698047
  H         5.7656722093       -0.0053387016       37.6754569337
  H         1.7714400863       -2.1414980383       18.8949038338
  H         2.7781530864       -2.7327311798       17.4277750328
  H         1.0073436845       -2.6432592591       17.4390162121
  H        18.6434378266        2.9698696364       21.9759021806
  H        18.2520543104        1.3026155934       21.4570203102
  H        19.3236351331        1.4466040997       22.7214125225
  C        12.2763334936        7.3643162704       10.1508644363
  N        12.2562112328        8.6863445503       10.1630370431
  O        11.2970171421       10.3949676361       11.3561811240
  S        12.9654310996        6.6219848978        8.6877159011
  C        12.5108029240        9.5642860638        9.0114136880
  H        13.0020064303       10.4863819981        9.2507677427
  H        13.2448617079        9.2043401272        8.4051212835
  C        11.2461709891        9.7629686714        8.2219032929
  H        10.6930452374       10.5922582217        8.5080959625
  H        11.5077028699        9.7262228707        7.2288830441
  H        10.5600926799        8.9619046402        8.4349616737
  H        21.0037290598       11.3783271692        2.9842227011
  C        21.6984542625       10.5143386331        3.0865490364
  H        21.1449349739        9.6165432188        3.3333432689
  C        22.5383884973       10.6999485291        4.3383728210
  C        22.6169494505       10.4893044824        1.9415004044
  C        21.7564750907       10.8687966861        5.6866323985
  H        23.2098501246        9.8433382610        4.5085544667
  H        23.1873404076       11.5557253583        4.1383635116
  H        21.9041310911       10.6795222538        1.1690574514
  H        23.1279509599        9.4968413612        1.8473755011
  H        23.3728724241       11.2874855844        1.7147292413
  C        21.3432203248        9.5602604462        6.4243859217
  H        22.2707220448       11.3686120356        6.4729490064
  H        20.8439678729       11.5393409641        5.5249082961
  C        20.6507566584        9.7077410051        7.8501921369
  H        22.2595112254        8.9650319461        6.4217390680
  H        20.7864327494        8.9174991295        5.7486219494
  C        19.3582093637       10.6462011938        7.8821265768
  H        21.3124462813       10.0038416757        8.5971482854
  H        20.3315337201        8.7178479580        8.1251590478
  C        18.1085695522        9.8924910674        7.3597666863
  H        19.0858273128       11.0524970949        8.8883181792
  H        19.5194251750       11.5258385135        7.2251611466
  C        16.8578985322       10.7738853428        7.0538170036
  H        17.7843263159        9.0883193134        8.0233151086
  H        18.4066146506        9.4216312861        6.3825275426
  C        17.1623842068       12.1058824978        6.3278104763
  C        16.3047549509       11.6147223214        8.1741909415
  C        15.6359516293        9.9901301645        6.4373323987
  C        16.8648522911       13.2297056245        7.0276427923
  C        17.7173102675       12.4465908524        5.0671583448
  C        16.3097608194       12.9539596594        8.2714815518
  C        15.7275507991       10.9388075824        9.2860053070
  H        15.9817883595        9.4683376052        5.5047244641
  H        15.5619931259        9.1767713139        7.1776841186
  C        14.3659856959       10.8805246733        6.1811324043
  S        17.2372805555       14.7049927691        6.2584143932
  C        17.8313171355       13.8061941031        4.8643688036
  H        17.9824146979       11.7266703993        4.3655314556
  C        15.7746610119       13.5892939723        9.4042661256
  H        15.7244622845        9.8818812696        9.2925510911
  C        15.3468402251       11.5744898617       10.4339919078
  H        14.6724242240       11.8255831811        5.6748591533
  H        13.8512759587       11.1735376228        7.1088388352
  C        13.4468467240       10.2478425703        5.1566148360
  C        18.1795803860       14.3723313234        3.5039434613
  C        15.4163415147       12.9450957082       10.6116861690
  H        15.8249474482       14.5973319311        9.4667128115
  C        14.8996618045       11.1594907107       11.6668514060
  H        12.4711115829       10.7115173250        5.2694345244
  H        13.2140707522        9.2649091486        5.5819423758
  C        13.9167539346       10.0563303684        3.7855667563
  C        17.9929041037       15.7037351975        3.1944697368
  C        18.7421032257       13.3907123677        2.5025089625
  C        14.9081859710       13.6528957494       11.8260417001
  C        14.6292686805       12.2370484404       12.5106378188
  S        14.5025892402        9.6405742709       12.3966331638
  H        14.5426071528        9.1764345620        3.6987411531
  H        14.6213336803       10.7899170461        3.4533601520
  C        12.8752041983        9.8995618421        2.7465801612
  N        17.5569467980       16.7549293746        4.0677237931
  C        18.3350888383       16.1626858015        1.9191852439
  C        19.0100882717       13.8618782780        1.2105720453
  H        18.8500991378       12.3373975167        2.7051160277
  C        13.6403735337       14.4483567920       11.6665355576
  C        16.0433429339       14.5012462274       12.4728329783
  C        14.2822363851       11.7579752217       13.7802647505
  C        14.2173617529       10.3997635082       13.8973726081
  H        12.0229653395        9.5023884997        3.2725931283
  H        12.5696756379       10.8602249318        2.2658833751
  C        13.3975368320        8.9895061259        1.6194371435
  S        17.6798691637       18.1804727612        3.2627678356
  N        18.2034186023       17.5645148369        1.8229166602
  C        18.7788030722       15.3068019866        0.8895859382
  H        19.4193789355       13.1270118515        0.5802627811
  H        13.8522872338       15.2207840690       10.9703618537
  H        13.3270423122       14.9730024369       12.5959084041
  C        12.4479949168       13.6248000120       11.0820844565
  H        16.5908509569       15.1204554823       11.7824039145
  H        15.6165385871       15.1009374045       13.2901478371
  C        17.1142117603       13.6779830610       13.1373535688
  H        14.0918633196       12.4419593702       14.6172547873
  C        13.8724402951        9.5807321340       15.1330995664
  H        13.4367146439        7.9775279743        2.0333688721
  H        14.4456904335        9.2335829873        1.3862745634
  C        12.5485136043        9.0443671080        0.3045200143
  C        18.9655174400       15.9212352671       -0.3392393939
  H        12.6485087177       13.2037369598       10.1301782323
  H        12.1815484399       12.7354034680       11.6250100489
  C        11.1998705943       14.4231714447       10.9639774879
  H        17.7177430797       13.0894191978       12.4307640720
  H        16.6408330701       12.9942702205       13.8648419597
  C        18.1500526578       14.4515817858       13.9458202139
  C        13.8583002267        8.1356648758       15.3259328369
  C        13.8171592678       10.3864389357       16.4033026339
  H        12.3172036845        8.0330431850       -0.0394957380
  H        11.5551863663        9.3892919264        0.4893618717
  C        13.2081147130        9.6670047565       -0.9438282700
  H        18.7024101692       16.9161824592       -0.4614380384
  C        19.3707701587       15.4924437415       -1.5808273757
  H        11.3101465751       15.2575595079       10.2146751234
  H        11.0087275022       14.9495810392       11.9258342970
  C        10.1528047930       13.4643851642       10.4763473191
  H        18.6123079245       15.1328851277       13.2706505927
  H        17.7000684450       14.9911383913       14.8483283615
  C        19.2780390144       13.6656962796       14.5232614735
  N        13.9451300152        7.1688702868       14.2543851602
  C        13.6596525599        7.5468803046       16.5940607920
  C        13.6083948474        9.7966945739       17.6339303329
  H        14.1328216094       11.4143271162       16.3669052907
  H        13.1942839151        9.0459339145       -1.8151602730
  H        14.2823646345        9.9568963908       -0.7162420611
  H        12.8571245339       10.6617550998       -1.2586690312
  S        19.5094197907       13.8198352249       -2.0297034483
  C        19.5516429876       16.5171043163       -2.5890954620
  H        10.5595800845       12.8279382781        9.6569112819
  H         9.7108166426       12.7658465849       11.2009535962
  C         8.9638778639       14.3261610130       10.0163734983
  H        19.2520690707       12.7306289663       14.1453843184
  H        19.0654644634       13.5071587384       15.5696339566
  C        20.6056950568       14.3555041932       14.4491579666
  S        13.6406121455        5.7340451117       14.9260740278
  N        13.5538458003        6.1729707911       16.4773226829
  C        13.4765955324        8.2978008515       17.7801954604
  H        13.6371662236       10.3853480297       18.5300297086
  C        19.9346433741       14.4685991899       -3.6223793481
  N        19.9249795315       15.8506716285       -3.6988180691
  O        19.5758275054       17.7765630530       -2.4532458738
  H         8.4657594950       14.7669692917       10.8515112405
  H         9.2513376736       15.0653541339        9.3314858164
  C         7.9843065695       13.3979351612        9.3594642287
  H        21.4123921968       13.6838611816       14.6848328666
  H        20.7702958257       14.7239622268       13.4722625963
  C        20.5868893481       15.6244333380       15.3962146925
  C        13.1584188428        7.5328127050       18.9538860405
  S        20.2568102488       13.4389724626       -5.0043380715
  C        20.0882129641       16.5345049385       -4.9473795422
  H         8.4933885287       13.1371803570        8.4516572704
  H         7.8776038867       12.4977797203        9.9756480214
  C         6.7222981403       14.1610525154        8.8164367535
  H        20.5764064566       15.3473253491       16.4539368226
  H        19.7331039258       16.2310685832       15.3016998568
  C        21.8249824210       16.4820366024       15.2285571728
  H        13.1701424854        6.4626197434       18.8667455176
  C        12.6272471577        7.8221604979       20.1531578855
  H        20.8429766938       16.0947145581       -5.5770336185
  H        20.3229319548       17.5731504511       -4.8772888020
  C        18.7031615858       16.4812775649       -5.6070755381
  H         6.4455176470       13.6841720162        7.8715783483
  H         6.9791535454       15.1627624256        8.4025806742
  C         5.5915461766       14.1250859374        9.9370847265
  H        22.0301149116       17.1667443285       16.0124167630
  H        22.6721871586       15.7035896113       15.1863086611
  C        21.6786299048       17.3184956126       13.9685745329
  S        12.0880178286        9.3808930423       20.5754460417
  C        12.3557261926        6.7769201595       21.1337579592
  H        18.0144836426       15.9915099284       -4.9244801608
  H        18.7052827909       15.8629100873       -6.5116646592
  H        18.3411025892       17.4761733438       -5.8847912279
  H         5.9264951333       14.7352902265       10.7957727699
  H         4.7189919617       14.6767601838        9.6711848191
  H         5.1682716777       13.1171089165       10.2875819512
  H        20.6195844087       17.6961615326       13.8604039937
  H        22.1265377599       18.1104908497       14.3429338187
  H        22.0185151047       16.8388028637       13.0080504024
  C        11.6603242902        8.6543607515       22.0934472498
  N        11.8730830508        7.3354636339       22.2226458742
  O        12.6811969744        5.6222536256       21.0704192670
  S        11.3867340560        9.5511377204       23.5647602350
  C        11.7169324227        6.5805776032       23.4935271876
  H        11.3035074503        5.5855032942       23.3925727443
  H        10.9438695562        7.0324005321       24.0629265887
  C        13.0818067113        6.4236753652       24.2663308055
  H        13.0051953374        5.6212380887       24.9802681649
  H        13.2082005117        7.3665416482       24.8477178833
  H        13.9525032980        6.2512730959       23.5369314301
