352
 i =    31300, time =    31300.000, E =        25.4361148141
  H        12.1681133975        5.5925357560       32.3295808017
  C        11.2730634716        6.0056997267       31.9621187806
  H        10.7756955894        5.1309303278       31.4793401144
  C        11.4383212338        6.9219205940       30.8496896577
  C        10.5714450401        6.4813098818       33.2186338241
  C        11.8611222531        6.1931859432       29.5523258041
  H        10.4778047839        7.4172658453       30.7211977044
  H        12.1355619998        7.6900131283       31.1611747170
  H         9.5929355923        6.8248415870       32.9022219817
  H        10.4199335512        5.5819841613       33.8820862428
  H        11.1464936860        7.2622704329       33.6380661642
  C        10.6436799000        5.7054593291       28.6572584237
  H        12.5606635083        5.4136841534       29.7441507887
  H        12.3747534369        6.9455023852       28.9679754661
  C        10.8343804782        5.8541250742       27.1825483865
  H        10.4976190709        4.6564212773       28.7680836480
  H         9.7435156616        6.2323042866       28.9819475804
  C         9.7048960231        5.2327852816       26.3668038333
  H        11.7293463540        5.2579448105       26.9504540232
  H        10.9364044169        6.9240494424       26.9167538253
  C         8.4567746910        6.2227476207       26.2523190865
  H        10.1803469328        4.9353097661       25.4333258751
  H         9.5546284649        4.1883073588       26.7127914149
  C         7.2932068513        5.5018115604       25.6039600069
  H         8.0811875642        6.7569367631       27.0969261688
  H         8.8651684295        7.0239547155       25.5850550884
  C         6.9411271418        4.1358772281       26.2745382769
  C         7.6806095800        4.7057290557       24.4158059634
  C         6.1314631878        6.4535651728       25.3321020187
  C         7.0746432984        2.9672538599       25.4723185864
  C         6.4252355502        3.6361703492       27.5195528857
  C         7.6050956441        3.3723448542       24.2894972532
  C         8.0210191525        5.3502327441       23.2361361961
  H         6.5030525154        7.1041074361       24.5280805893
  H         5.9588831572        7.0764345119       26.2464450794
  C         4.9423174351        5.7988435894       24.7646598438
  S         6.8470049861        1.4306353580       26.2573447396
  C         6.3177219940        2.2664296964       27.6708537179
  H         6.0861909469        4.3937066948       28.2514818345
  C         7.9295436146        2.7198816437       23.0944770305
  H         8.0207863235        6.4025735834       23.2281878142
  C         8.3026196248        4.7660487438       22.0942483169
  H         5.1640512909        5.3787819059       23.7628105026
  H         4.8950910003        4.8869367824       25.3018325110
  C         3.6065735483        6.5527528012       24.7708793190
  C         5.8538360109        1.5757286550       28.9401726561
  C         8.3179975350        3.4188791414       22.0324783030
  H         7.8241404376        1.6800071731       23.1167940598
  C         8.6860930608        5.2617704956       20.8628058665
  H         2.9490376632        5.8792799883       24.0763630962
  H         3.6581600673        7.4767220956       24.2998870443
  C         3.0092132052        6.7629155584       26.2150231852
  C         5.8709829644        0.1730604557       29.1486650147
  C         5.3475796279        2.3543552112       30.1201338860
  C         8.7737067323        2.7608435982       20.7375449735
  C         8.9679864319        4.1519870941       20.0581915421
  S         8.9492101210        6.7030617783       19.9769442596
  H         2.0648408868        7.2677052060       25.9635704337
  H         3.5567213152        7.3989086338       26.8965897495
  C         2.6346303447        5.3945276974       26.7775403369
  N         6.2508613799       -0.7503116095       28.1408784202
  C         5.6434104155       -0.4008303690       30.4099993925
  C         5.1382758631        1.8064395712       31.3403727091
  H         5.2757266560        3.4173926923       30.0918114499
  C         7.6726911797        1.9768064022       20.0042962341
  C        10.1239409025        1.8733751893       20.9223781565
  C         9.4406797112        4.4462314066       18.7582873719
  C         9.5829500862        5.7858121995       18.6047184424
  H         2.1481762918        4.7886929393       26.0556027541
  H         3.5611056460        4.9252595841       26.9059487009
  C         1.8305251245        5.5032714219       28.0156408195
  S         6.2021671823       -2.2454658933       28.9005498446
  N         5.8959731588       -1.8109572710       30.4147624374
  C         5.2317903905        0.3424825363       31.5198190749
  H         4.7842192609        2.4285612745       32.1435792337
  H         7.3292730366        1.2609138280       20.7143871553
  H         8.2748030799        1.3327585487       19.3164133586
  C         6.5549712301        2.7594555942       19.3491995828
  H        10.4472548278        1.5402073922       19.9037340947
  H         9.8840373881        0.9692246869       21.4403208934
  C        11.3373688606        2.5388022148       21.5029014530
  H         9.7950223494        3.6567463100       18.0912585572
  C         9.9455936656        6.4668912236       17.3412902425
  H         1.4345512758        4.5984376702       28.2724621802
  H         1.1626518202        6.2771420954       27.8885468664
  C         2.6341626763        5.7847789057       29.1987010258
  C         4.9930244341       -0.3084919948       32.7688324202
  H         6.9271120307        3.3454587648       18.5177979780
  H         6.1059383214        3.4340504342       20.1080456329
  C         5.4792972304        1.9251583766       18.7481703071
  H        11.1086926982        2.8479435363       22.5164913488
  H        11.5248346009        3.5006868590       21.0606281823
  C        12.5930964140        1.6211981927       21.3022290006
  C        10.0902061604        7.8859099196       17.0653174326
  C        10.1088292746        5.6335736478       16.1418401182
  H         3.1468999045        4.8038554085       29.3908823930
  H         3.4877006895        6.4306271883       28.9173135351
  C         1.7899000905        6.1456747450       30.4562421028
  H         5.1045606604       -1.4123092100       32.7896766169
  C         4.7413455165        0.1201581313       34.0070476754
  H         4.9666536904        1.3121017011       19.4802163367
  H         6.0381423274        1.2473209343       18.0594886599
  C         4.4687457568        2.6636030317       17.9068752240
  H        12.5968813810        0.8663928602       22.0902202483
  H        12.5838774937        1.1361088393       20.3871469042
  C        13.8467216918        2.4486169889       21.3747747736
  N         9.8817702560        8.8755214858       18.0369501685
  C        10.3287455254        8.4065145313       15.8040895989
  C        10.4156846432        6.1426148405       14.9004969764
  H        10.0275553344        4.5680177493       16.2656164748
  H         0.8674627587        5.5125668654       30.4097038086
  H         2.3339486411        5.8789750369       31.3837163672
  H         1.3992676951        7.1733325211       30.4804826753
  S         4.4689902602        1.7154047676       34.5071528599
  C         4.6927809128       -0.8960169790       35.1082984250
  H         4.5426812746        3.6791162083       18.2694198297
  H         4.8450031142        2.8431288811       16.8563826910
  C         3.0233934589        2.2198044383       17.9488611835
  H        13.6847054578        3.3906448316       20.9582521438
  H        14.6590249438        1.9137892493       20.8305812505
  C        14.3389052482        2.7098971526       22.8114001423
  S         9.8558004577       10.2767473299       17.2235542723
  N        10.2677133915        9.8344021490       15.7531400108
  C        10.5788908920        7.5799648477       14.7203049009
  H        10.4183881744        5.4465708867       14.0661925247
  C         4.4237510937        1.0623486795       36.1850956990
  N         4.4273024290       -0.2978686210       36.2381231602
  O         4.8801005646       -2.1126020683       35.0087560445
  H         2.3763118051        3.0076208233       17.4194535334
  H         2.6192229564        2.0793429134       18.8609857413
  C         2.9538060037        1.0358329084       16.9775381741
  H        14.6633860118        3.7348395536       22.9411404120
  H        13.4775550165        2.5326075564       23.4632716493
  C        15.4152658453        1.6695322007       23.2069297390
  C        10.8490324565        8.1760605081       13.4791295582
  S         4.0953835870        2.0130874156       37.6145472137
  C         4.2832637455       -0.9357376990       37.6063237885
  H         1.9598976880        0.9945716412       16.4628354659
  H         3.7920145441        1.0967909495       16.1959010948
  C         3.0891304391       -0.3720379557       17.6199870465
  H        15.6244583649        0.8997293384       22.4500092115
  H        15.0220987173        1.1516623548       24.1414602562
  C        16.7597450770        2.3993154174       23.5861251259
  H        10.2682074839        9.0283069959       13.2749426232
  C        11.4430971939        7.7112468182       12.3294507222
  H         3.5232812536       -0.4550132637       38.1424938897
  H         3.9290525300       -1.9822666211       37.3897598697
  C         5.6314369474       -1.0301447490       38.3275463404
  H         4.0325413833       -0.4275364055       18.2120293998
  H         3.1109235118       -1.1832505860       16.8003145701
  C         1.9766522125       -0.6153494157       18.6933334943
  H        16.3974290783        3.4208004437       23.8069597924
  H        17.3061817163        1.8753048732       24.3892709639
  C        17.7834815664        2.4776460234       22.3978146532
  S        12.2244229700        6.2433325074       12.1377463883
  C        11.5227674859        8.6049985280       11.2003798463
  H         6.5173309780       -1.0695709470       37.6261337253
  H         5.7443983396       -0.0459423946       38.8267012230
  H         5.7481137155       -1.8855756141       39.0127467847
  H         1.0584785186       -0.2771493485       18.3656914727
  H         2.2764098686       -0.0869807897       19.5842277271
  H         1.9761943361       -1.6647453408       19.0276857704
  H        17.9255066871        3.4793239152       22.0749255942
  H        17.5513885248        1.8609604706       21.5595839781
  H        18.7414887307        2.1253952468       22.7517958876
  C        12.5220279323        6.7339267419       10.5030205257
  N        12.1134821875        7.9920496726       10.1825606904
  O        10.9592446398        9.7202027951       11.1172216118
  S        13.5280694517        5.7651982544        9.4239556815
  C        12.3123273480        8.6203446503        8.8623675590
  H        12.0888138447        9.6892062213        8.9257324775
  H        13.3258925468        8.5722353897        8.4893511473
  C        11.4591501057        7.9666308521        7.7863959770
  H        11.7315689792        8.2643478270        6.7680582431
  H        11.4836690756        6.8873274827        7.7830718013
  H        10.3782225429        8.3261739438        7.8628679934
  H        20.8927021216       11.2368241746        3.4908541367
  C        21.4215624195       10.2854103493        3.6666518271
  H        20.6787186920        9.4684049618        3.7454796594
  C        22.3522099256       10.3067880342        4.8188217730
  C        22.2213437138        9.9637803038        2.4004017789
  C        21.7347280800       10.4895648580        6.2276313981
  H        22.9108098949        9.4005890849        4.8158488295
  H        23.1647989434       11.0175486832        4.6586073935
  H        22.3621341178        8.8959714246        2.2623019681
  H        23.2005270687       10.4375731413        2.4542365454
  H        21.6729368879       10.1780500982        1.5433678111
  C        20.7671217159        9.3809659913        6.4906925677
  H        22.5213464866       10.3971354597        6.9390377771
  H        21.3384534978       11.5308399472        6.1958814820
  C        20.0602011361        9.7278121256        7.8217163284
  H        21.3588502115        8.5007662686        6.5262280302
  H        19.9842620680        9.2636634981        5.7337244372
  C        18.7961278695       10.5334837977        7.6158257995
  H        20.6918520155       10.2002456625        8.5833414206
  H        19.7965962157        8.7760819776        8.3549609206
  C        17.4910747660        9.7142388024        7.2517183421
  H        18.5283320698       11.1900041093        8.4311720682
  H        19.0576364771       11.2604699114        6.8276085815
  C        16.2583822662       10.5493565058        7.1067819040
  H        17.2407043045        9.0643997952        8.0311272274
  H        17.6335897464        9.1435392715        6.2676279932
  C        16.4863739097       11.8688832970        6.3798276991
  C        15.7949988544       11.2557398874        8.3056648183
  C        15.1538334064        9.7290473094        6.3564211904
  C        16.3393534040       12.9783727271        7.2202656128
  C        17.0438599993       12.2902048350        5.1471955180
  C        15.7835534946       12.6039238797        8.4054529941
  C        15.4734577301       10.5597969326        9.4505269942
  H        15.4761573654        9.4613004116        5.3755152480
  H        14.8445980852        8.7972933046        6.9114699254
  C        13.8821583022       10.5248551576        6.2406125253
  S        16.8473651059       14.4915469960        6.5064335152
  C        17.2902570464       13.6199610884        5.0226649752
  H        17.3786541978       11.5384248714        4.4264529008
  C        15.5337218086       13.2765336995        9.5261487337
  H        15.4549202829        9.5037517732        9.4418954897
  C        15.2082451937       11.2707642227       10.5916261637
  H        14.0659159197       11.5748282613        6.0249064269
  H        13.2953675833       10.5281466168        7.1886054099
  C        12.9329131667        9.9600649566        5.1586518996
  C        17.8464678607       14.3015387456        3.8305987248
  C        15.1939725851       12.6490783426       10.7117478653
  H        15.5921076498       14.3248026615        9.5876711622
  C        14.7578042974       10.9443517931       11.8741549493
  H        11.9274083774       10.0882488623        5.3876721077
  H        13.0942197796        8.8832916580        5.0402003145
  C        13.3132042462       10.4896639351        3.8010996872
  C        17.8605418502       15.6321445855        3.4724732569
  C        18.3566246121       13.4304507918        2.7385290763
  C        14.9032019072       13.3245698610       12.0043117570
  C        14.7168189175       12.0219567281       12.7530918514
  S        14.4668244640        9.3883430845       12.6490120386
  H        14.3875890208       10.6613158782        3.6736103236
  H        12.7127863699       11.4420547856        3.7174111981
  C        12.8334187030        9.5582074064        2.6523028659
  N        17.5289163577       16.6625126571        4.4603955186
  C        18.2242322278       16.2243716972        2.2836576166
  C        18.8642829351       13.9750984301        1.5813937277
  H        18.4642474327       12.3803617901        2.8584461470
  C        13.4976608182       13.9984241816       11.8395222800
  C        16.0746697415       14.2456662891       12.4341764923
  C        14.4144924871       11.5563755041       14.0705356369
  C        14.2314548147       10.1629519505       14.1396453942
  H        13.5876123234        8.7008486450        2.5971029074
  H        11.9018152907        9.1076803250        2.8968634703
  C        12.8435329593       10.2213945431        1.3153004540
  S        17.5645358600       18.1486558999        3.7890542510
  N        18.1441577044       17.6801188644        2.3028828514
  C        18.6920160654       15.4155533724        1.2202391523
  H        19.1943117021       13.2155529595        0.8677274383
  H        13.6361025266       14.7558570680       11.0512912352
  H        13.3388057303       14.4419125977       12.8000323332
  C        12.3016084147       13.1896225090       11.3299462269
  H        16.2502637443       14.7977310848       11.5968450638
  H        15.7860398398       15.0001422434       13.1739176037
  C        17.3368207159       13.4348838531       12.8243929917
  H        14.3859531123       12.2185142761       14.9491762391
  C        13.9157256565        9.4372850981       15.4020749867
  H        13.8079584857       10.7845033084        1.1409550762
  H        12.0455614986       10.9373365339        1.3155916568
  C        12.5802491877        9.3792681368        0.0918715030
  C        18.9481456357       16.0224556102       -0.0015039261
  H        12.4732864698       12.6834093262       10.4201910377
  H        12.0881230940       12.4142054797       12.0815884872
  C        11.0596253305       14.0420653264       11.2075835421
  H        17.8165141726       12.9965129675       11.9301907553
  H        17.2093184749       12.6313751373       13.5378616991
  C        18.3248728059       14.3704294620       13.4337434382
  C        13.8089356485        8.0808679917       15.6009754534
  C        13.5001059860       10.2972625577       16.5616941077
  H        13.3733775151        8.6667549083       -0.0366954144
  H        11.6928803997        8.8500346739        0.2593495665
  C        12.5373591444       10.1928921334       -1.1836480582
  H        19.0756932737       17.0602376577        0.0580830156
  C        19.2461558976       15.5222479728       -1.2624015091
  H        11.2642813970       14.8393953985       10.4181794333
  H        10.7386903450       14.5310005653       12.1738351763
  C         9.9648816717       13.2511276801       10.5588928070
  H        18.5565165505       15.2001247532       12.7398960117
  H        17.8239780217       14.7502401543       14.3256385252
  C        19.5961087762       13.7135818572       13.9974600572
  N        14.1627132914        7.0944038911       14.6404308009
  C        13.4537380308        7.5621448325       16.8289758321
  C        13.1177963799        9.7775267703       17.7828254755
  H        13.4148490657       11.4338008651       16.4945428859
  H        13.5749493145       10.5827481899       -1.4987966301
  H        11.9610821384       11.1107848224       -1.0464851863
  H        12.0572103264        9.6288480698       -2.0321405505
  S        19.5518053353       13.8486993073       -1.6666100337
  C        19.2776565540       16.4745136597       -2.3378239669
  H        10.4502101164       12.5182496031       10.0085903456
  H         9.4948076874       12.6563974393       11.3598216870
  C         8.8301651594       14.0580626144        9.9384836052
  H        19.9578906060       12.9141412672       13.3646607037
  H        19.3732465742       13.2552768080       14.9493664885
  C        20.7350012628       14.7251502281       14.1915359277
  S        13.8544085445        5.6750606097       15.2771608322
  N        13.4014756505        6.1435090168       16.7819268539
  C        13.1424174801        8.2684073918       17.9780015651
  H        12.8151941636       10.4645896616       18.5943694233
  C        19.7199002992       14.4978368908       -3.3318334198
  N        19.6626775895       15.8381423732       -3.4457892216
  O        19.1070399792       17.6638194730       -2.2131315544
  H         8.1242993931       14.4868496807       10.6246853557
  H         9.2514656352       14.9362222354        9.4577647794
  C         8.0541352540       13.1954407702        8.9458759738
  H        21.6033453670       14.1215381469       14.5612023876
  H        21.0071643919       14.9632669768       13.1934501680
  C        20.5741206027       15.9707986904       15.1054758899
  C        12.7495934283        7.5707936936       19.1204746549
  S        20.1529391867       13.5965864336       -4.8070586807
  C        19.7663040077       16.5738290646       -4.7440382245
  H         8.7104730173       12.8563184302        8.0976549409
  H         7.6661301424       12.2838115379        9.4746922993
  C         6.8561788018       13.9677119031        8.3488858751
  H        21.1969903379       15.8575624921       15.9229072362
  H        19.5315583846       15.9883001443       15.4299239227
  C        20.9154305362       17.2324315824       14.3169023794
  H        12.8373442136        6.5042119930       19.1049598610
  C        12.4242075349        7.9915059996       20.3413811261
  H        20.4051681318       16.0666774333       -5.5595884341
  H        20.2348053203       17.5660937237       -4.4073169270
  C        18.3737596653       16.6661012704       -5.4144616745
  H         6.5873849841       13.6121313870        7.3624562006
  H         7.1053906141       15.0044637035        8.1055331104
  C         5.6628402915       13.8650825628        9.2512343086
  H        20.4308214667       17.4446004287       13.3786737187
  H        20.7030449676       18.0591362297       14.9370960127
  C        22.4454475662       17.2541764161       14.1077215154
  S        12.1335523754        9.5648152453       20.8283735761
  C        12.3072906404        6.9229043737       21.4206796886
  H        17.6737446728       16.1852352025       -4.6949477711
  H        18.1402227741       16.2322300497       -6.3589252958
  H        18.0820633031       17.6509969418       -5.4237110965
  H         5.6300890838       14.6481831955       10.0027906866
  H         4.7175445386       13.9176082698        8.7294741231
  H         5.6878839349       12.9017482556        9.7115074963
  H        22.7740465388       17.0183863749       13.0532951144
  H        22.8689921963       18.2055540662       14.4334783727
  H        22.8730212333       16.5016018116       14.7723201059
  C        11.8464729056        8.8627720319       22.4474981576
  N        11.8504392801        7.4928127936       22.5169925506
  O        12.5874304112        5.7371376484       21.2195757227
  S        11.2723097575        9.7930756524       23.8130975180
  C        11.7949137765        6.7163680639       23.7526560715
  H        11.3075371809        5.7692334754       23.5198334454
  H        11.1897877004        7.2356518955       24.4836518978
  C        13.1568665497        6.2956609721       24.2771426688
  H        12.9487489700        6.1409062502       25.3457253639
  H        13.8317842019        7.0976809786       24.1092081372
  H        13.4915789250        5.3779085294       23.8827772708
