352
 i =     1000, time =     1000.000, E =        51.9358401726
  H        11.9492271864        7.2140126362       32.6380082287
  C        11.3780610419        6.2377188782       32.6331596835
  H        12.0623047739        5.5304663350       32.4902749017
  C        10.2991655935        6.0429538803       31.6098909761
  C        10.7189267005        6.0107701038       34.0044829974
  C        10.8541521601        5.9738812912       30.1237303401
  H         9.8488344618        5.1026123943       31.7098785507
  H         9.4265799115        6.7252050433       31.5598226619
  H         9.9714314083        6.8077071465       34.2791243050
  H        10.3695704853        4.9140545148       33.9831845913
  H        11.5209653789        6.1037528530       34.8094578699
  C         9.8146954883        5.8918424729       29.0750491395
  H        11.6011227293        5.2490286586       30.0838738811
  H        11.3047620446        6.9218889244       30.0681018719
  C        10.5838635212        5.6386741313       27.7641841800
  H         9.1574742278        4.9905179360       29.2541572450
  H         9.1265362718        6.7356927109       28.9402161676
  C         9.6035022130        5.2173892478       26.6465206552
  H        11.3638928454        4.8471712648       27.9565292980
  H        11.1638538514        6.5325889349       27.5576272390
  C         8.4893034138        6.0736429072       26.3436383813
  H        10.2540091590        4.9012930183       25.7930057812
  H         9.2437065367        4.2972245764       26.8580564527
  C         7.3184039589        5.4063342773       25.5964807132
  H         7.9659759611        6.5097568053       27.1923041719
  H         8.7793817024        6.9061811153       25.7849912452
  C         6.8901103797        4.0376210347       26.1488019169
  C         7.7293201318        4.7369606479       24.3003718898
  C         6.1515109067        6.3739800816       25.3047451433
  C         7.2318931011        2.9717631457       25.3741201519
  C         6.4067136593        3.6462569166       27.4291993248
  C         7.7080499963        3.4017334532       24.1484068304
  C         8.1794094735        5.4136013021       23.1628129266
  H         6.4060223579        7.1057993368       24.6541293372
  H         5.8690851549        6.7449167869       26.2904410113
  C         5.0100384485        5.6021561566       24.6678057727
  S         6.9254329899        1.4399138773       26.1720466440
  C         6.3502721133        2.2764863930       27.5727922178
  H         6.3972871215        4.4853137237       28.0655691503
  C         8.2193681544        2.8366772448       23.0479638012
  H         8.2124318635        6.5134680350       23.2717391833
  C         8.5496236390        4.8355259968       22.0043134616
  H         5.2917230201        5.4400444313       23.6211112264
  H         4.7192348833        4.6078688604       25.0646852195
  C         3.6453762731        6.4507889258       24.5496730400
  C         5.8563242128        1.4587533682       28.6884533587
  C         8.6244009896        3.5120912778       21.8790132729
  H         8.4011775824        1.7558039560       22.9742274288
  C         8.9381768951        5.2756019513       20.7148044201
  H         3.1496547236        5.7908366785       23.8558581303
  H         3.9098014186        7.2829757962       23.8820729808
  C         2.9486333423        6.7476301633       25.8670745775
  C         5.7855756560        0.0640329636       28.9421534006
  C         5.2182788095        2.2358579946       29.8041600701
  C         9.0178045864        2.8396615566       20.6238322419
  C         9.2372960108        4.1441572888       19.9466369372
  S         9.1401032678        6.7192850743       19.9409964768
  H         2.4399301933        7.7150288611       25.6148155236
  H         3.6890260205        7.0787550671       26.6625372492
  C         2.0909623844        5.5051652313       26.2415997331
  N         6.2739279272       -0.8879401444       27.9643370308
  C         5.5260874673       -0.5618626432       30.1414424893
  C         4.9797320173        1.5702222505       31.0369592094
  H         4.9600219157        3.2892852092       29.7506547442
  C         7.8708250817        2.0567642804       19.9589940412
  C        10.3220450357        2.0292287642       20.6088546982
  C         9.7460911164        4.6099106919       18.6973698696
  C         9.6901414838        5.9125041035       18.4810639417
  H         1.3978237177        5.4352047383       25.3130498469
  H         2.7148170797        4.6105960764       26.3324867102
  C         1.2064978901        5.7020734483       27.5200975160
  S         6.0746356760       -2.3466884994       28.6178971468
  N         5.6146124497       -1.9091284378       30.1069669401
  C         5.1887612272        0.1481967191       31.3431497809
  H         4.6783778380        2.1242027017       31.8338801898
  H         7.4218833179        1.2906623632       20.6925010964
  H         8.3752850117        1.4452333009       19.2331097359
  C         6.7235326779        2.6610713131       19.2355820030
  H        10.6800033619        1.8233989995       19.6672387062
  H        10.0270606558        1.0562091303       21.0052871562
  C        11.4424375734        2.6576467779       21.4389975127
  H         9.8967346137        3.7413242964       18.0593133803
  C         9.9076195778        6.5493456349       17.0747416132
  H         0.5583747728        4.7962725933       27.6651255061
  H         0.7036696096        6.6031497480       27.5986398038
  C         1.9157342330        5.7156462028       28.9039933748
  C         4.9718719598       -0.5501075222       32.5673243920
  H         7.2688728597        3.1428794389       18.4525926196
  H         6.3247564144        3.3773517107       19.8841112359
  C         5.5805195752        1.7177887424       18.7592236229
  H        11.2741513578        2.8762938603       22.5721233229
  H        11.5294133906        3.5618011360       20.7894289966
  C        12.7917298696        1.9119695472       21.4521587002
  C         9.9840994942        7.9329993022       16.8866450872
  C        10.2697165372        5.7382704973       15.8811763879
  H         2.3772051641        4.7786347595       28.8702883018
  H         2.7307584206        6.4806253203       28.7089059153
  C         0.8484631918        5.7486810546       30.0662769027
  H         5.1846713487       -1.5715904574       32.4166050860
  C         4.7314453668       -0.0506499446       33.8132499307
  H         5.6970929683        1.0336866969       19.4808892610
  H         5.7965656745        1.1897010181       17.9128777054
  C         4.2087386590        2.4714053471       18.5903314519
  H        12.7153248525        0.8227197820       21.5030037757
  H        13.1947164852        2.1683945394       20.4665503888
  C        13.6836123081        2.6535958199       22.4167510323
  N         9.6736766458        8.7872082194       17.9153787492
  C        10.3573160077        8.5589155823       15.6784878934
  C        10.4922867110        6.3419551841       14.6723949711
  H        10.2880816477        4.6667933741       15.8549554355
  H         1.5018911281        6.0049136092       30.9478080597
  H         0.0873270993        6.5580927555       29.9090468572
  H         0.4061307681        4.7704929036       30.0059268110
  S         4.4331459196        1.4970220376       34.3756923005
  C         4.7270083754       -1.0874761526       34.8488969415
  H         4.3123843639        3.4443184035       19.2370977443
  H         4.5254077795        2.6732051954       17.5102397753
  C         2.8895945343        1.7101303911       18.6701040843
  H        13.2141271678        2.5846152934       23.3702556768
  H        13.6735497628        3.6957737743       22.1632392468
  C        15.1697060771        2.2154266352       22.4527682024
  S         9.7992195620       10.3082492641       17.2719463312
  N        10.3655760824        9.9416483279       15.8094629390
  C        10.6436759684        7.8265505217       14.5070485859
  H        10.6064861249        5.6882621491       13.8385378408
  C         4.1523606371        0.8101692013       35.9501169067
  N         4.2267571299       -0.5576995709       35.9534587750
  O         5.0511021738       -2.2380290688       34.7623117680
  H         2.2002534283        2.4962685669       18.1837048279
  H         2.6664989736        1.6016731617       19.6787110972
  C         2.8402602828        0.3769298984       17.9253437387
  H        15.2477716775        1.1812091232       22.7461321586
  H        15.5801181033        2.3304930188       21.4345450838
  C        15.9850715960        3.0556115792       23.4068286299
  C        11.0548975092        8.4646800813       13.2864235043
  S         3.6971992756        1.6848450987       37.3446173670
  C         4.0802953545       -1.4136561245       37.0706701105
  H         2.5417291967        0.6227367076       17.0180132156
  H         3.8096844265       -0.0009390662       17.9469711108
  C         1.9296308899       -0.7779173904       18.6227176250
  H        15.4185320690        3.3945892624       24.3287074427
  H        16.2109607835        4.0272123867       22.9124326374
  C        17.2572555075        2.4116076580       23.8288096510
  H        10.5765289162        9.4225750129       13.3915791456
  C        11.5613341854        8.0328917064       12.1169165256
  H         3.3656248558       -0.9291381852       37.7482102137
  H         3.4860992104       -2.3651596786       36.9061733586
  C         5.3763450914       -1.6661557560       37.9872213508
  H         0.9058345775       -0.3524984240       18.6948339939
  H         2.4760962474       -0.9708500068       19.5955873265
  C         1.9858192368       -2.0436991483       17.8270970878
  H        17.6669527037        2.8469557113       24.6560566424
  H        16.9625178383        1.4445579872       24.1683798625
  C        18.2829317792        2.2198068009       22.5690776979
  S        12.3257849478        6.4910236993       11.8511044159
  C        11.5619947660        8.9402913041       11.0538915847
  H         6.2239233252       -1.1168536016       37.6870882920
  H         5.0491279950       -1.4547011018       39.0108226403
  H         5.6326279921       -2.6688962152       37.8926372896
  H         1.4458989366       -2.8139228332       18.4437915726
  H         2.9659932540       -2.4861864791       17.6125119420
  H         1.4519812876       -2.0554488406       16.9375342712
  H        18.0436018654        1.4240454393       21.9159696878
  H        19.2610190237        1.8852129571       22.8872369951
  H        18.3305443088        3.2297601296       22.0149698020
  C        12.5544064825        7.1319665367       10.1446154477
  N        12.2481231876        8.4438895136        9.9503011130
  O        11.0055967253       10.0224016561       11.0201078699
  S        13.4246378193        6.4056981422        8.8668718831
  C        12.3313910395        9.1964088197        8.7490998299
  H        12.6601703807       10.2643269257        9.0180568782
  H        13.0715379817        8.7925387345        8.1555902439
  C        11.0745807842        9.1611806263        8.0951601281
  H        10.5815607330       10.1725738267        8.3434397759
  H        11.1524873971        9.1643290815        6.8671131440
  H        10.3390695251        8.3430694760        8.2488842952
  H        21.2021147985       10.2700921655        3.7023701605
  C        22.1415309379        9.8517145599        3.7809449224
  H        22.0081997305        8.8132418068        3.7712215531
  C        22.9606745799       10.1536038390        5.0573305520
  C        22.8972944961       10.2959455865        2.5587934635
  C        21.9946144355       10.3664227329        6.2514092409
  H        23.4993442931        9.4075288525        5.2222506198
  H        23.6246141516       10.9330371598        5.0300992930
  H        22.2137449964       10.1077389481        1.7635985962
  H        23.7340132652        9.6133309537        2.3476799654
  H        23.1700826097       11.3193854128        2.7807837578
  C        21.1015744056        9.1582221387        6.5701143711
  H        22.4036248221       10.6829298761        7.1798633743
  H        21.4857053084       11.3162694941        5.9845284953
  C        20.5108604448        9.2776557809        8.0246784924
  H        21.7539616891        8.3963758234        6.4483571183
  H        20.4128282984        9.1179447150        5.8345325376
  C        19.4206624589       10.3016972765        8.0442039640
  H        21.1733463330        9.6917136299        8.7358515608
  H        20.3554120918        8.3426250667        8.4407660974
  C        18.0894964482        9.7177419960        7.5819513929
  H        19.1243231892       10.5156008421        9.0670351172
  H        19.5972702595       11.1542522252        7.4051355983
  C        16.9145488558       10.6422651469        7.2593837986
  H        17.8059568422        9.1574273985        8.5152163252
  H        18.3822463309        9.1474823252        6.6559204067
  C        17.2154025519       11.9569445703        6.5906138398
  C        16.4242193660       11.3927523437        8.4423554809
  C        15.7544025847        9.7952121966        6.6436341047
  C        17.0411354099       13.1028897931        7.3089807640
  C        17.6431449312       12.2810660706        5.2610610764
  C        16.5384158278       12.7465715742        8.5317521527
  C        15.8953183693       10.7834446311        9.5641294966
  H        16.1043167371        9.4200640537        5.6898090727
  H        15.3886524278        8.8847111844        7.2448326570
  C        14.4618737515       10.6756225344        6.1709671329
  S        17.3014827965       14.5971729317        6.4421517515
  C        17.8855414758       13.5986879054        5.1140455305
  H        17.7284260003       11.4268232731        4.6127323658
  C        16.0857845545       13.3189843323        9.7129135072
  H        15.7651177322        9.6714721799        9.5811688425
  C        15.6004753679       11.3299200357       10.7390850258
  H        14.9803546479       11.4948080436        5.6454447700
  H        13.9212018551       11.0361742214        7.1095225951
  C        13.5481237466        9.9689204595        5.1927650428
  C        18.3013605288       14.2721094320        3.9352940940
  C        15.6081828706       12.6780880624       10.8797471933
  H        16.0765662927       14.4950007488        9.7763169838
  C        15.0530462075       10.9175120697       11.9627212115
  H        12.6601927346       10.5852512318        4.9895717065
  H        13.2486097061        8.9325672957        5.4283397147
  C        14.1468063675        9.9897755718        3.7859188646
  C        18.3164189373       15.6445163329        3.5980690596
  C        18.7341603404       13.4138320355        2.7074550823
  C        15.2752822672       13.3192713820       12.0696831636
  C        14.9033097244       12.0262395867       12.7694705612
  S        14.6146055782        9.4362833725       12.7644391983
  H        14.7257489056        9.2316186811        3.5367180664
  H        14.8421785917       10.8039807820        3.6636788088
  C        13.0571293996       10.1204926203        2.6958649584
  N        17.9094238871       16.6814220748        4.4512279298
  C        18.3373480710       16.1773543931        2.2835214570
  C        18.8410134639       13.9947345888        1.4608753677
  H        18.8933539464       12.4001643204        2.7812665475
  C        13.9022286381       14.1131081680       11.9747367075
  C        16.3834513125       13.9641167536       12.8596439248
  C        14.4352392053       11.6245787977       14.0149713231
  C        14.1663267479       10.3060089411       14.1266702328
  H        12.4808352657        9.2402745757        2.6507355428
  H        12.3131605526       10.7927732590        2.8776105739
  C        13.5402066097       10.3638548046        1.2093351745
  S        18.0011232783       18.0951826100        3.6723206002
  N        18.1783029255       17.5227561297        2.2127489545
  C        18.6027226199       15.4330759510        1.1349110122
  H        19.2644227926       13.2759530679        0.6832033145
  H        14.0882380703       14.8994933267       11.2551425550
  H        13.5806121285       14.6093057526       12.8751102105
  C        12.7381955980       13.2896085398       11.4938615526
  H        16.6273627546       14.7839182727       12.2670950789
  H        15.8135759863       14.2682110940       13.7565718931
  C        17.5231165089       13.1405026061       13.2972248518
  H        14.2157800765       12.4181028231       14.7184515082
  C        13.9540950784        9.6398893721       15.4284406177
  H        14.2706972314        9.6036576590        0.9603647532
  H        13.9811327232       11.3906986792        1.1652065879
  C        12.3278488796       10.2793338349        0.3271524463
  C        18.7531354338       16.0536355196       -0.1670454382
  H        13.1380087714       12.7104544552       10.7327399421
  H        12.4998916918       12.5865396541       12.3268510458
  C        11.5922122374       14.1181458962       10.9517050702
  H        17.9148033632       12.2843759206       12.5796385752
  H        17.2792332437       12.4720104476       14.1037045083
  C        18.6527541569       14.0450202810       13.8271342393
  C        13.7972004717        8.2175978440       15.5908910160
  C        13.6541978028       10.4821218884       16.6145838975
  H        12.0398577740        9.2057610270        0.4662723237
  H        11.5904042211       11.0955333247        0.6978189644
  C        12.6410521335       10.5243635692       -1.1642164093
  H        18.5553658183       17.0209204092       -0.0706895682
  C        19.1514490589       15.6775500551       -1.3641270239
  H        11.8138254236       14.6272464820       10.0519166325
  H        11.3478235782       14.9403559371       11.5852414877
  C        10.3362054029       13.2490031165       10.6944370027
  H        18.8215599422       14.8281510033       13.1781944224
  H        18.1813673276       14.5060216185       14.7263677174
  C        19.9353439835       13.2658807117       14.3575989029
  N        14.1089375073        7.1845663094       14.5985361040
  C        13.6282569219        7.5595092892       16.8259432375
  C        13.3279594393        9.8071456630       17.8146909046
  H        13.6254720766       11.5743068335       16.6103383068
  H        11.9389465934       10.1435179966       -1.7944175628
  H        13.4418967880       10.0752875490       -1.5650882429
  H        12.7309389959       11.5898000899       -1.3110364462
  S        19.6747952358       14.0941806673       -1.9140203956
  C        19.3782977802       16.6779640487       -2.4450117182
  H        10.5259946887       12.5424094864        9.9288284486
  H        10.0054628490       12.6620432409       11.6098092360
  C         9.1716624715       14.0532980510       10.3281705006
  H        20.1730227325       12.5786972196       13.5900206383
  H        19.7330103592       12.8217068107       15.3131821740
  C        21.1877986791       14.2032251829       14.3515141191
  S        14.0773015827        5.6991880512       15.3842524832
  N        13.6559625122        6.1566186997       16.8057129976
  C        13.3100028953        8.3035701886       18.0267545141
  H        13.0313240267       10.5046443814       18.6446056935
  C        19.9286609207       14.7467986606       -3.5416803640
  N        19.7224074758       16.1321892624       -3.6145273507
  O        19.1615096352       17.8518692248       -2.2975824915
  H         8.9181234810       14.5805094817       11.3193022328
  H         9.3604879428       14.8396908812        9.6438766559
  C         7.8867203338       13.1698802131        9.8581045628
  H        21.9681930711       13.6085168424       14.8422605955
  H        21.5660494231       14.2498672778       13.3790209967
  C        21.1277084674       15.6416300935       14.8624971376
  C        12.8828305102        7.6803771708       19.2331799419
  S        20.3863004631       13.9542515348       -4.9452585014
  C        19.7718118400       16.9420914986       -4.8623971086
  H         8.2157276907       12.5847031790        8.9350313941
  H         7.6702887164       12.6313902813       10.7212764266
  C         6.6848561557       14.1042277343        9.3988365793
  H        21.5981011575       15.6962075212       15.8420138099
  H        20.0158495565       15.8734814878       15.3425462345
  C        21.7748742602       16.5597522973       13.8733946914
  H        13.1510840087        6.5575565874       19.1913215235
  C        12.3827362386        8.1417204761       20.3876518356
  H        20.4122318081       16.4086405567       -5.5989546436
  H        20.1545915093       17.8776560419       -4.7300025887
  C        18.4464820180       16.9914781590       -5.6491434014
  H         6.0113681224       13.5932124955        8.6703305995
  H         6.9972084099       14.9974457665        8.8426990547
  C         5.8059076264       14.4879458956       10.7082613907
  H        22.7614750240       16.1959897106       13.6154437220
  H        21.2450628579       16.7609588264       13.0451410034
  C        21.9387181958       17.9554617845       14.5606962253
  S        11.6677599363        9.6653315144       20.6512361167
  C        12.1979227834        7.0410834040       21.3749717547
  H        18.2844766648       18.0337601162       -5.9241694982
  H        17.6856236735       16.7150363988       -4.9567629314
  H        18.4721705551       16.3542225165       -6.6011750032
  H         4.8280834598       14.6294332057       10.1772844116
  H         5.7891673025       13.6519058052       11.3963509232
  H         6.3174823677       15.3982853797       11.2116970249
  H        22.4420139472       18.5908716935       13.9205307368
  H        20.9386729832       18.3235922814       14.7866347779
  H        22.5804675806       17.8022107487       15.4437398342
  C        11.3554758074        8.9855698726       22.2932402058
  N        11.5498946775        7.6042651375       22.4554927720
  O        12.6534151929        5.9132689964       21.2746297826
  S        10.9386542049        9.9544052369       23.6795183921
  C        11.4538140696        6.9487167446       23.7613761572
  H        11.0538572059        5.8512629328       23.5642341743
  H        10.8300964028        7.5543677677       24.3769693649
  C        12.8768359375        6.8342353265       24.3790973210
  H        13.2414380930        7.8181560021       24.6880379369
  H        13.5826095893        6.5007649782       23.6807564307
  H        12.7349296987        6.1441336861       25.2636721478
