352
 i =     7600, time =     7600.000, E =        25.4785234085
  H        12.2772228037        7.3425701259       32.8635002746
  C        12.0064898427        6.3710147613       32.3504665799
  H        13.0269346162        5.9218819570       32.0810710277
  C        11.2477256328        6.7002934708       31.0182265667
  C        11.2556679224        5.4286089002       33.2063454069
  C        11.4165175406        5.5279352977       30.0894807305
  H        10.1491938380        6.9585921888       31.2160834125
  H        11.8311555519        7.5580052171       30.6136533068
  H        10.2241384979        5.7678166889       33.3228677521
  H        11.3266815129        4.4621704600       32.7227287512
  H        11.7923197203        5.4837352177       34.1726644875
  C        10.4177328680        5.4965140056       29.0640482289
  H        11.4169530297        4.5989482226       30.6212711472
  H        12.3909288767        5.6791154943       29.6717536138
  C        11.0229049565        5.4586480735       27.6299167208
  H         9.9512491009        4.5372184087       29.1823257322
  H         9.5524265648        6.1132769926       29.1262471189
  C        10.0502837498        4.8049377058       26.6037434887
  H        11.9721992872        4.8891312166       27.4972833493
  H        11.4610672653        6.4486974574       27.3817778217
  C         8.8598429742        5.7347201256       26.2677601033
  H        10.5439482586        4.5885969698       25.6101958761
  H         9.6867328440        3.8724130680       27.1380833198
  C         7.6095726393        5.0707241213       25.6389849188
  H         8.5083984451        6.1781426357       27.1611162810
  H         9.1972615624        6.5308099181       25.6656804822
  C         7.1971692562        3.7538279254       26.3630847986
  C         7.9140278289        4.2725034605       24.4077207281
  C         6.3913261463        6.0073336629       25.5083366517
  C         7.3055466199        2.5878535252       25.6213267368
  C         6.6255931434        3.4199974728       27.6152886979
  C         7.7329852757        2.9405757856       24.3404219451
  C         8.2597144814        4.9000128779       23.2807508583
  H         6.4868576856        6.7382030951       24.7576999066
  H         6.2055731608        6.4670186110       26.4761695370
  C         5.0587843559        5.2802092512       25.3197810773
  S         6.8377302174        1.1714139825       26.3956370523
  C         6.4034807458        2.1019233637       27.7677555195
  H         6.3560556372        4.2741286994       28.2473226378
  C         8.0278337811        2.3391785255       23.1624582416
  H         8.1162394638        5.9152657596       23.3112702897
  C         8.6012196645        4.2968669733       22.0637519713
  H         5.2123185166        4.4270989388       24.6106384093
  H         4.7950377942        4.9539814222       26.2622685744
  C         3.9508115985        6.1283679534       24.8637570168
  C         5.9889487720        1.4878452672       29.0415458921
  C         8.4627324418        2.9797000624       21.9293843225
  H         8.0053334671        1.3154336744       23.0902170591
  C         8.9315523399        4.6707392042       20.7930049698
  H         3.4034807915        5.5244820935       24.2013189965
  H         4.2155059509        7.0319652201       24.2382181910
  C         2.9905620985        6.5951746595       26.0552101176
  C         5.8929240491        0.0578412443       29.3172639926
  C         5.7800725066        2.3344832919       30.2557012476
  C         8.8581115624        2.2281128069       20.6902712184
  C         9.1172775759        3.5776643227       19.9787973649
  S         9.2642675367        6.1798784507       20.0387245046
  H         2.2772657007        7.4131440727       25.7501486908
  H         3.5238234030        7.0299335816       26.9429650224
  C         2.0650524266        5.4073737321       26.4854265008
  N         6.1100505633       -0.9651793129       28.3645579088
  C         5.5069586634       -0.3997621796       30.5323686178
  C         5.3133269198        1.8482654290       31.4845282049
  H         5.9220465059        3.4420777875       30.2073388184
  C         7.7169037308        1.4019404621       20.0704858251
  C        10.1053890194        1.2975740552       20.9240929889
  C         9.4738024359        3.9076409605       18.6769771078
  C         9.5850841536        5.3014263900       18.5425269369
  H         1.3475395843        5.2662247507       25.6325911222
  H         2.6858727244        4.5258232182       26.5773947307
  C         1.3492434611        5.7800981485       27.7737886910
  S         6.0987535169       -2.3494888442       29.2101075389
  N         5.6666646493       -1.7793470318       30.6342519462
  C         5.2579461092        0.3872482760       31.6415890066
  H         5.1234581560        2.6242988865       32.2343450806
  H         7.2857503205        0.6176738481       20.6871472209
  H         8.0808137452        0.7718359504       19.2007018395
  C         6.4824290500        2.2234030524       19.7475933887
  H        10.2930857467        0.5226052783       20.1455034374
  H         9.9440305306        0.6400249731       21.8109440384
  C        11.4264328160        2.1053239094       21.2079581467
  H         9.5812494012        3.1828989462       17.8819741019
  C         9.9454140812        6.0975197361       17.3189580238
  H         0.5077015109        5.0416030585       27.8565927408
  H         0.8374726344        6.7232483910       27.7380788005
  C         2.1971138091        5.7861253268       29.0556148353
  C         5.0977718814       -0.1903912670       32.8932889789
  H         6.7730787369        2.7716656933       18.8877172691
  H         6.2014617384        2.9247499703       20.5712115740
  C         5.2860254819        1.3228389147       19.3120652667
  H        11.1215682831        2.7459045509       22.0168131389
  H        11.7140056684        2.7735765386       20.4165560902
  C        12.6345067533        1.1549792001       21.5740813493
  C        10.0133219162        7.5286117238       17.2032016094
  C        10.1048057719        5.3442253381       16.0742953686
  H         2.6271017023        4.8425439352       29.1688912211
  H         2.9523770677        6.5112816309       28.8383609284
  C         1.3792841148        6.2456674621       30.3131694807
  H         5.1006123741       -1.2447222595       32.8359735763
  C         4.8132598060        0.2690690100       34.1407401462
  H         5.0287345050        0.7642099662       20.1296561256
  H         5.6290318571        0.7799587876       18.4596924005
  C         4.1259605963        2.2102007875       18.7703212010
  H        12.3975413223        0.6608085061       22.4977706481
  H        12.7687063064        0.4385669740       20.7339363496
  C        13.8647628650        2.0107806844       21.9539060527
  N         9.7104823935        8.4382693751       18.1989833935
  C        10.4054358144        8.1694001536       16.0341433849
  C        10.4559332837        5.9702233131       14.8642955621
  H         9.9794523232        4.3021902769       16.0500661623
  H         0.8341326102        5.4496275363       30.8047772765
  H         2.1096754464        6.6993937440       31.0277826036
  H         0.6362842366        6.9819643127       30.1249624007
  S         4.3341417829        1.9559137953       34.5223229987
  C         4.6435009316       -0.7659063488       35.2056603811
  H         4.0312232274        3.2301812178       19.2404512419
  H         4.2416675992        2.2643219958       17.6786382697
  C         2.8216240271        1.5052944511       18.9968561631
  H        13.5118129060        3.0188108028       22.3463814239
  H        14.3327722045        2.2524984346       21.0413419326
  C        14.8534498264        1.3040100343       22.9000318542
  S        10.0290895599        9.8967242575       17.6155853121
  N        10.5714271390        9.5405837093       16.1562304558
  C        10.6226471026        7.4498136829       14.7979552715
  H        10.3158338535        5.3739552436       13.9726218803
  C         4.1025903437        1.1983332034       36.1229176046
  N         4.1445345307       -0.1481481441       36.2618412676
  O         4.7999687593       -2.0048800627       35.1087363027
  H         2.0441200136        2.3072926386       18.9609739282
  H         2.7894117642        1.0300110948       19.9530516307
  C         2.4349863754        0.4607783942       17.9298189901
  H        14.2410286387        0.7020807376       23.6962903014
  H        15.4116813895        0.5621242136       22.3058398053
  C        15.7156759167        2.3505337466       23.4129931519
  C        10.9555256026        8.2993974174       13.6436193777
  S         3.5882938110        2.1277389108       37.5829839375
  C         4.0331114675       -0.9253047612       37.5176427376
  H         1.3297925300        0.3793144338       18.0124868095
  H         2.5344649065        0.8316866250       16.9334707463
  C         3.0217851833       -0.9096363890       18.0244471644
  H        15.1291433095        2.7940629065       24.2458327489
  H        15.8509956829        3.2408028573       22.6585938119
  C        17.1217891973        1.7280713890       23.6646549702
  H        10.7848134727        9.3681252210       13.6784716441
  C        11.3698165055        7.9980516785       12.3749016273
  H         3.2979951129       -0.4836594713       38.1806296480
  H         3.6489391452       -1.9235310548       37.3499836935
  C         5.3945254032       -1.0153604547       38.1681676958
  H         2.9329234403       -1.2637366146       19.0563554049
  H         4.0558719104       -0.9812522083       17.7293161262
  C         2.3244981312       -1.8413739419       17.0059254582
  H        17.5395136503        2.1674249294       24.5503626760
  H        17.0996486073        0.6894313348       23.8909196582
  C        18.0395141314        2.0720797727       22.4808497598
  S        11.9426772731        6.4329418326       11.8782093612
  C        11.5313848143        9.0139589846       11.3196090190
  H         5.3324939546       -0.4816646255       39.0925515540
  H         5.7638089942       -2.0582074889       38.5210926831
  H         6.1204474990       -0.4717276541       37.5246974661
  H         1.2410146377       -1.8482377421       16.9376411120
  H         2.6589891425       -2.8294479016       17.1102934771
  H         2.6035603465       -1.7335067183       15.9281723201
  H        19.0126262167        1.9189610678       22.8575085875
  H        17.9748505410        3.0089934313       22.0610115208
  H        17.8260100535        1.3598650979       21.7317756387
  C        12.4331798460        7.1865957760       10.3644506473
  N        12.1334577863        8.4988453268       10.2592105572
  O        11.3249895062       10.2142972881       11.5126136530
  S        13.3771231597        6.3926214745        9.0859429836
  C        12.3940374768        9.3199246380        9.0335583040
  H        12.5266574399       10.3507100215        9.3156549127
  H        13.2794231538        9.0185131888        8.6096522394
  C        11.1444305824        9.3206578681        8.0991585154
  H        10.2468713345        9.0447365269        8.6737333589
  H        10.9643098092       10.2988653887        7.6255610821
  H        11.1862543061        8.5042095698        7.2351703811
  H        21.5982753797       11.5285521880        3.4238583502
  C        21.8438081896       10.5343076647        3.6174883838
  H        20.9314457164        9.9641353980        3.7535288259
  C        22.6630164593       10.3185327601        4.8900766359
  C        22.6638206131       10.1263895309        2.4677792718
  C        21.8354520729       10.8760636661        6.0414129646
  H        23.0989916697        9.3006519038        4.9457888553
  H        23.5533856236       11.0064163550        4.8013010772
  H        22.7712173071        9.0348974513        2.5427134448
  H        23.7042630067       10.5004727256        2.3973082716
  H        22.1852169491       10.3895001255        1.5420769801
  C        21.4632631561        9.7263535997        6.9868762232
  H        22.3892880656       11.6528623855        6.5947128735
  H        20.9720621626       11.3158037265        5.6915654798
  C        20.7185166298       10.0299808353        8.3191102524
  H        22.3026000035        9.0530342575        7.2538071781
  H        20.8172323370        9.0435067288        6.4893247286
  C        19.4146090593       10.7819332882        8.1894002467
  H        21.4755121695       10.6642700988        8.9343658379
  H        20.5257688356        9.0742700654        8.7507636320
  C        18.3267541911        9.9258242319        7.5500941417
  H        19.1325379764       11.1555724820        9.2053356669
  H        19.6145974997       11.7407063578        7.6861576405
  C        17.0728840877       10.6810957630        7.2113217773
  H        17.9548360502        8.9969986093        8.0761790901
  H        18.8142588143        9.6436259802        6.5870455031
  C        17.3844562480       12.0582780167        6.5000009885
  C        16.5499820835       11.4111668935        8.4290325158
  C        16.0390461247        9.9438907630        6.3130240781
  C        17.0267707202       13.1720318796        7.2783733091
  C        18.0427006992       12.4002967759        5.2959513253
  C        16.3992960728       12.7586663184        8.4697595326
  C        16.0838585073       10.7330326275        9.5856211387
  H        16.5596364789        9.8245337157        5.4015095293
  H        15.7487045075        8.9740093766        6.6319827342
  C        14.7366518456       10.6944529824        6.1125911169
  S        17.5172563199       14.6747662208        6.5270755891
  C        18.1031296210       13.8011353055        5.1461253941
  H        18.2418995250       11.6659323159        4.5778999231
  C        15.9043253445       13.3303696556        9.6538912472
  H        16.0534866553        9.6835421059        9.5701972064
  C        15.5573658947       11.3227203816       10.7253433050
  H        14.8232975586       11.7193988570        5.7822503750
  H        14.2437650089       10.6810790653        7.1113616833
  C        13.7749325468        9.9365860674        5.2151676640
  C        18.4088219598       14.3885159390        3.8330623215
  C        15.5508079682       12.6693152796       10.7989861803
  H        15.9615919608       14.4302416324        9.8337545313
  C        15.0872497285       10.9490539612       11.9115093309
  H        12.8573398610       10.4170927757        5.3843428410
  H        13.5154251037        8.8753677302        5.5040442850
  C        14.1580378906       10.0695022944        3.6727139084
  C        18.3177527368       15.7682355639        3.4686495799
  C        18.7234306591       13.4387899115        2.6539868765
  C        15.1184112632       13.3448888161       12.0471148072
  C        14.8500772888       11.9906582551       12.7692478975
  S        14.7990451157        9.3907707714       12.6348803765
  H        14.8149854973        9.3097173558        3.3148482761
  H        14.8049019141       10.9208105990        3.6416840046
  C        12.9979283445       10.2921062591        2.6933798308
  N        17.9771311570       16.7390411747        4.4333001344
  C        18.5170088636       16.2070850522        2.1760862815
  C        19.0063290763       13.9833847385        1.4219222441
  H        18.8115896304       12.3943527082        2.7185653150
  C        13.8607483145       14.2132024596       12.0018568378
  C        16.1946190497       14.1117894979       12.7603214300
  C        14.3281107187       11.6102277680       14.0468826800
  C        14.2812867031       10.2199522394       14.1065149600
  H        12.5772391898        9.2857998255        2.6102960823
  H        12.2396492126       10.8260662174        3.1592432363
  C        13.3436146832       10.7232818860        1.2616227544
  S        17.9672959940       18.1754796924        3.6463271730
  N        18.3764161604       17.6399244573        2.1116934507
  C        18.8158037911       15.4012871883        1.1253778760
  H        19.3393100697       13.3263039419        0.6435747836
  H        13.9930826935       14.8408554156       11.1684978842
  H        13.7325135752       14.8356870392       12.8371350221
  C        12.6305974105       13.3518607078       11.7230465270
  H        16.5694830570       14.8984991894       12.1135546257
  H        15.9100623563       14.5614421052       13.7175688206
  C        17.4160213588       13.3272928987       13.2599528776
  H        14.0934458244       12.3897123551       14.7455499266
  C        13.9320122624        9.4040814900       15.3509702631
  H        14.1497747337       10.1187937445        0.8209836478
  H        13.7260058563       11.7719783384        1.1871782219
  C        12.1482188183       10.4876764768        0.3490563559
  C        19.1040938075       16.0506315277       -0.1189276344
  H        12.8114552646       12.5849351306       10.9098880189
  H        12.2818022941       12.8419533576       12.6500965910
  C        11.4790515743       14.2656259562       11.2477777858
  H        17.8908414939       12.9427352013       12.3885104896
  H        17.1765127358       12.5361372464       14.0250284869
  C        18.3937975668       14.2914654108       13.9001759937
  C        13.7918020221        7.9875226290       15.4460152452
  C        13.5679083040       10.1312919169       16.6108389971
  H        11.7562930270        9.4551173375        0.4716793481
  H        11.3206943854       11.1748088272        0.4686568031
  C        12.4572809378       10.7387128888       -1.1472302684
  H        18.7116060562       17.0777257055       -0.2259158833
  C        19.4297977747       15.6809901762       -1.4021117230
  H        11.7427996861       14.5991549483       10.2815724484
  H        11.5883487195       15.1206374864       11.8406547895
  C        10.0618277857       13.6468335256       11.3579882264
  H        18.5969462388       15.1385322280       13.2880549708
  H        17.9543091973       14.6086047952       14.8394270721
  C        19.6990954943       13.6296257555       14.3524455617
  N        14.0689602041        7.0184382662       14.4563494001
  C        13.5196519803        7.3161286034       16.6376325048
  C        13.3565701246        9.4936270192       17.8162254243
  H        13.6051349766       11.2349909102       16.5973826020
  H        12.8845953141       11.6955063353       -1.3350560714
  H        11.5185726967       10.5678287573       -1.6153725106
  H        13.1329175489        9.9698098549       -1.6076726286
  S        19.7875007097       14.1028134324       -1.9120669187
  C        19.4297815281       16.6941322359       -2.4908703665
  H        10.0104017517       12.9506221968       12.2173614421
  H         9.4155005747       14.5082785618       11.5811969657
  C         9.5813812395       12.9196069076       10.0682073074
  H        19.9114747820       12.8080704278       13.6777156582
  H        19.6365451974       13.0433792988       15.3927918998
  C        20.8172520713       14.5662586305       14.4058245376
  S        13.7201873527        5.5293173534       14.9961249893
  N        13.3049420392        5.9375344576       16.5255582984
  C        13.3211058705        7.9854654281       17.8743394168
  H        13.1330877958       10.0707843648       18.6513384135
  C        19.8605042415       14.7909419317       -3.5360263247
  N        19.6466171619       16.1396477461       -3.6728144999
  O        19.3339741839       17.8952171613       -2.2371131177
  H         9.9169686517       13.5336307779        9.1712344778
  H        10.1255092254       11.9988591307        9.9482325745
  C         8.0862044961       12.7389453054       10.0059923520
  H        21.7741286078       13.9659548534       14.7291698133
  H        20.9724149728       15.0195222484       13.4120509118
  C        20.6759174999       15.6819962956       15.3590026729
  C        13.0277266720        7.2299178807       19.0703242643
  S        20.1320245408       13.7389210081       -4.9434701092
  C        19.4923602295       16.8248580735       -4.9173538180
  H         7.8395773901       11.9705481551        9.2945243698
  H         7.6989372250       12.3985704232       10.9861022837
  C         7.3324363105       14.0055791649        9.6456159180
  H        20.6529850989       15.3752239366       16.3420532942
  H        19.7677810341       16.2667109143       15.1410661275
  C        21.9064633354       16.6976731294       15.2461949809
  H        13.1812155817        6.2211616598       18.9228556170
  C        12.6036119572        7.5215505777       20.3358607081
  H        20.0633765809       16.2313030660       -5.6893652741
  H        19.8955609258       17.8609584410       -5.0706626688
  C        18.0212114651       16.7480218618       -5.4234739943
  H         7.7416513332       14.2165240728        8.6944567432
  H         7.5040924993       14.8033987874       10.3476764288
  C         5.8413664058       13.8638627876        9.5377820500
  H        22.0344003978       17.1912121245       16.2320231680
  H        22.7952465858       16.1680022101       15.1341216860
  C        21.7335448735       17.7132927903       14.0997518645
  S        12.4325783527        9.1059068695       20.9756310063
  C        12.5753950117        6.4046036469       21.2689688025
  H        17.8758612626       17.3535884040       -6.2830340322
  H        17.3766445453       17.0801298025       -4.6515978153
  H        17.7207296606       15.7566536671       -5.6280217262
  H         5.6732607456       13.4875021222        8.5111151865
  H         5.3417705687       13.1781747745       10.1743250548
  H         5.3270010173       14.8036757233        9.7120869471
  H        21.8282818464       18.6654566262       14.6035023062
  H        22.6046114826       17.5321709874       13.4097415802
  H        20.8478722202       17.5748635509       13.5781324763
  C        11.7785822726        8.2411105879       22.3491205504
  N        12.0167504361        6.8724968757       22.3670646201
  O        12.7898330469        5.1870188645       21.0875226901
  S        11.1012679572        9.0483727497       23.7899451739
  C        11.7771016139        6.0093464315       23.5568411064
  H        11.7660977532        4.9707991858       23.2842925741
  H        10.8793045985        6.3549916605       24.0871683182
  C        12.9689487264        6.2514226617       24.5338848579
  H        13.8383650945        5.9291712354       23.9494941661
  H        12.9684741225        5.4693912744       25.2967700350
  H        13.1063982008        7.2600240925       24.9444284964
