352
 i =    84000, time =    84000.000, E =        24.7208264206
  H        10.2571339974        7.2808933075       31.5091671762
  C        11.0904934254        6.8805277544       32.0398442909
  H        11.5959532734        7.7951866902       32.4111151171
  C        12.0407010066        6.1984347121       31.0298034838
  C        10.6895792374        5.9532778695       33.1947241067
  C        11.2017487034        5.4140022886       29.9293481649
  H        12.5865810689        6.9995479589       30.5076804009
  H        12.7362060914        5.5059231138       31.4786035605
  H        11.1359828871        6.3403071011       34.0836716508
  H         9.5917570316        5.9733140412       33.3561741780
  H        10.9668598605        4.9640507327       32.8298856003
  C        10.3798900381        6.2999793008       28.9352325638
  H        10.5691903680        4.6363690800       30.3282902327
  H        11.9472355076        4.8336702595       29.2977866247
  C        10.9639725304        6.2224791460       27.3914402782
  H         9.4207179316        5.8969856045       28.9091489562
  H        10.2965544661        7.3503664394       29.3109924421
  C        10.0459863222        5.4456281661       26.4698867711
  H        12.0229745751        5.8462424325       27.1766134763
  H        10.8289168654        7.2563618236       27.0217962342
  C         8.8048303046        6.1706303618       26.0859094178
  H        10.5558000770        5.2201652415       25.5397195313
  H         9.9512548370        4.4798612610       27.0131037762
  C         7.7754282467        5.2841016997       25.4178511894
  H         8.2453170198        6.5172620172       26.9918926388
  H         8.9105524107        7.0760431948       25.3759811607
  C         7.5636681659        3.9765928199       26.2074875329
  C         8.1574061650        4.5702570946       24.1890862157
  C         6.4974865457        6.1784005516       25.2654850313
  C         7.5661856221        2.9069785811       25.3474273615
  C         7.2602986267        3.5713927154       27.5082801456
  C         7.9999886988        3.2743675340       24.0682415918
  C         8.6366046975        5.3197450426       23.0576906339
  H         6.1213586030        6.0502007189       24.2172348427
  H         6.5933757856        7.2574001240       25.3989990863
  C         5.2996425770        5.8111251766       26.0921781101
  S         7.1012678059        1.4011750765       26.1101892061
  C         6.9523832779        2.2700802109       27.6077304857
  H         7.2748472964        4.2694022348       28.4114989088
  C         8.2937110811        2.7079875707       22.8698662969
  H         8.8372167613        6.4447862438       23.0775294434
  C         8.8801697300        4.7201022053       21.8684530667
  H         5.0416113411        4.8188658193       25.7578783695
  H         5.6048231046        5.6874822446       27.1963736496
  C         4.0751904235        6.5710510669       25.8359254333
  C         6.4732652728        1.5110811991       28.8353326988
  C         8.7112606305        3.4214870773       21.7456911965
  H         8.2406481791        1.6834775064       22.7374815268
  C         9.2820126820        5.1262262914       20.6731226117
  H         3.6546460517        6.5215030462       24.8455025749
  H         4.2245040934        7.6486251637       25.9644766892
  C         2.9686418988        6.2508916969       26.8357444428
  C         6.4421793675        0.1052354744       28.9762209395
  C         5.8974169257        2.2947344976       29.9709844616
  C         8.9754220217        2.6808615219       20.5125827122
  C         9.3909138101        4.0103913271       19.8462191287
  S         9.6845992406        6.5916492351       19.9426602505
  H         2.0125644856        6.5754782162       26.5370485854
  H         3.1646272400        6.9658046890       27.6751500626
  C         2.8393169844        4.8337252111       27.4883723096
  N         6.8150491084       -0.8061298540       27.9877232671
  C         6.1140838566       -0.4718667547       30.2149368174
  C         5.5723621690        1.6993748904       31.2014489415
  H         5.8714814225        3.3507570944       29.9433305716
  C         7.8456056096        1.9153332613       19.8066840436
  C        10.2267300442        1.8499397039       20.6247969348
  C         9.8741263228        4.4272510242       18.5617268207
  C        10.1015749659        5.7149651331       18.4993074713
  H         3.0780215139        4.0846963550       26.7513962580
  H         3.5657202253        4.6255380886       28.2731604184
  C         1.3850593280        4.5528216151       27.8814429678
  S         6.6267270341       -2.3041478441       28.6095161972
  N         6.1182954928       -1.8808386756       30.1573812804
  C         5.7272292131        0.2273878465       31.3447148505
  H         5.3396047107        2.3216092940       32.0318664918
  H         7.8222239549        0.9399350296       20.3296727391
  H         8.2104721403        1.5529911397       18.7745692112
  C         6.5605220035        2.7013300341       19.7129525289
  H        10.4762057632        1.4599947574       19.5995407591
  H         9.9837339863        0.9167648706       21.1292729281
  C        11.4835278728        2.5737653436       21.2146000786
  H        10.0606748757        3.6801480653       17.8568490835
  C        10.5963494888        6.4242487637       17.2339259233
  H         1.0982935107        3.4892704252       27.9135730687
  H         0.7154366803        4.7356164172       27.0257727259
  C         0.7849210189        5.2334260464       29.0622707522
  C         5.5365999344       -0.5446166904       32.5687584689
  H         6.6353417135        3.5313422583       19.0640623755
  H         6.4027633563        3.0222321291       20.7410634025
  C         5.2402034832        1.8843450421       19.4562224475
  H        11.3562654595        3.0440063507       22.1211940082
  H        11.7659804317        3.4100046669       20.5622922642
  C        12.7396886020        1.6814305122       21.3071654404
  C        10.6126267536        7.8213809218       17.0620375757
  C        10.8759623269        5.5868247132       16.0387058481
  H         0.2576594060        6.0825530680       28.6359088538
  H        -0.0741093706        4.6636226838       29.4801286367
  C         1.8225299174        5.4615949381       30.1260498745
  H         5.5734739984       -1.6463913769       32.4979347459
  C         5.2436330413       -0.1295130558       33.8670148807
  H         4.2904447363        2.3888555582       19.5593407894
  H         5.1432594452        1.0790941865       20.1267970861
  C         5.4123226961        1.2422202623       18.1089147029
  H        12.5820110139        1.0597531923       22.1761559954
  H        12.8369615537        1.0258064531       20.4792817929
  C        13.9667848300        2.6046802517       21.5847904495
  N        10.2179731473        8.7449963828       18.0397542834
  C        10.8233712635        8.3975403641       15.7966843667
  C        11.0622239021        6.1523301259       14.7781083071
  H        10.9474272713        4.5207518862       16.1157195067
  H         2.2234897653        6.3989084857       30.0998569968
  H         1.3078083135        5.4804083585       31.0991559000
  H         2.5229875275        4.6326579315       30.1926332274
  S         5.0771857543        1.5364855022       34.3420866770
  C         4.9947833307       -1.1532598207       34.9048084619
  H         5.8004968049        1.9925827503       17.4082363701
  H         6.1919041051        0.4626291397       18.0856534847
  C         4.0895523710        0.7052326825       17.5077860947
  H        13.7517833808        3.1982278280       22.4650089566
  H        14.1200614860        3.2900292613       20.7845674237
  C        15.3199583405        1.8211410850       21.6556961469
  S        10.3046381207       10.2085751100       17.3319828703
  N        10.7196717635        9.7975487383       15.8466499715
  C        11.0575330994        7.6140187404       14.6397232072
  H        11.0605234654        5.5016789040       13.9067513676
  C         4.7639059795        0.8380799517       35.9661389788
  N         4.6915302933       -0.5080157735       36.0406254583
  O         5.0279484715       -2.3512781621       34.6758848563
  H         4.2607871523        0.3127700137       16.5180196293
  H         3.4353812131        1.5167199980       17.4359309447
  C         3.3407910404       -0.3832487224       18.3444022528
  H        15.1286318305        0.9889652489       22.3203370833
  H        15.7106163639        1.4181380375       20.6653879625
  C        16.3434842274        2.7335232119       22.3699346149
  C        11.3508480543        8.3462451656       13.3943056057
  S         4.3171649839        1.6540437856       37.4290410628
  C         4.5368669834       -1.3533069835       37.2557204947
  H         4.0454908355       -1.1105173708       18.7181953863
  H         2.9847469511        0.1099079986       19.2716291079
  C         2.1809623050       -1.1006873007       17.5711475752
  H        15.8131257365        3.0440250965       23.2425878984
  H        16.6287163629        3.6204419269       21.8115699236
  C        17.6029488851        1.9129994510       22.7445712053
  H        11.0411194627        9.3624824481       13.4827795732
  C        11.7420218858        8.0648836655       12.1468221473
  H         3.6617677059       -1.1706506516       37.9024055600
  H         4.4075618422       -2.4092152959       37.0819514470
  C         5.9419283360       -1.5251391248       38.0687735028
  H         1.3180180317       -0.4618138852       17.3266129417
  H         1.6777340359       -1.7995379321       18.2858836897
  C         2.6919664532       -2.0014835302       16.4044090100
  H        18.0127883256        2.4387613013       23.6178658342
  H        17.3169708782        0.7985261585       22.8503715213
  C        18.5759215361        1.7943333939       21.6896387782
  S        12.4113451642        6.5467367445       11.5894711637
  C        11.9933255002        9.1447275845       11.1528049903
  H         5.9415859723       -2.1339274360       38.9744742730
  H         6.5889478007       -1.9760405789       37.3374194224
  H         6.3636734978       -0.5291340085       38.4439343583
  H         2.5131594634       -1.6414611901       15.3598481106
  H         2.3566552320       -2.9887271664       16.4837247829
  H         3.8117088011       -2.1726408874       16.4565599000
  H        18.1166059309        1.8223177647       20.7134503696
  H        19.0792134774        0.8400048838       21.8363105723
  H        19.3472096187        2.5008476290       21.7358605797
  C        12.9215666694        7.4309278791       10.1521956247
  N        12.6095360131        8.7278573095       10.0846511480
  O        11.6158539267       10.3213883915       11.3393897980
  S        13.6516784180        6.6682270870        8.7468390831
  C        12.6631963503        9.5210153436        8.8169061427
  H        12.5181154194       10.6090123410        8.9217062298
  H        13.6555567296        9.4697984080        8.2770036819
  C        11.5010545442        9.0959094969        7.9342673001
  H        10.9158108195        8.4835738205        8.5746124137
  H        10.9755770923        9.9781225558        7.4134315628
  H        12.0070772411        8.3986431439        7.2269072740
  H        21.3857287317       11.2769422456        2.7945985982
  C        22.0211347421       10.3980233904        3.0192720027
  H        21.3524848093        9.5764699053        3.2471646904
  C        22.9778448518       10.7095266893        4.1695437768
  C        22.6052911100        9.9532657439        1.7786299139
  C        22.0606876333       10.7333019682        5.3969064212
  H        23.7935019924       10.0027264845        4.3297552873
  H        23.4173071075       11.6809406390        3.9143576877
  H        23.0109256997        8.9567746368        1.8607837357
  H        23.3493712240       10.6790073626        1.4273770345
  H        21.8567335807        9.9590822343        0.9824971568
  C        21.7975471557        9.4189619290        6.0923285347
  H        22.7009554657       11.3380191707        6.0096548687
  H        21.1861777503       11.2876561841        5.1489500895
  C        20.6905912614        9.5779635235        7.1310838053
  H        22.6300066362        8.8087527565        6.4212271515
  H        21.3751225610        8.7159452155        5.3683961846
  C        19.2907879213        9.5447774085        6.5323946367
  H        20.9515169796       10.5513356074        7.6373564832
  H        20.9587172857        8.7905444049        7.8182455152
  C        18.3682261955       10.0281921338        7.5884124415
  H        19.2136947775       10.1040735718        5.6165049781
  H        18.9930613221        8.4822692468        6.2000680744
  C        17.0662006128       10.7898222684        7.1497283126
  H        18.9441754750       10.6174330088        8.3239120102
  H        18.1216919166        9.1578330349        8.2241056907
  C        17.3672130819       12.1455426630        6.4001812667
  C        16.5023885087       11.5708131516        8.2808120818
  C        15.9718286726        9.9225420506        6.3960173096
  C        17.0156097172       13.3035566686        7.1241218510
  C        17.9743430502       12.4495745675        5.1734350964
  C        16.4515150322       12.9090105144        8.3200185716
  C        16.0051062481       10.9050105642        9.4343908169
  H        16.3612945599        9.4592235183        5.5059907456
  H        15.6911835777        9.0628082860        7.0870550414
  C        14.7106115830       10.4971108127        5.8887004246
  S        17.4537531119       14.6951279674        6.3351108264
  C        18.1100327695       13.7795322488        4.9881185211
  H        18.2566769609       11.7093084895        4.5148925614
  C        16.0746634059       13.5263783375        9.4599493750
  H        16.0869362309        9.8339493635        9.4201077277
  C        15.6944328779       11.5639367758       10.5778398907
  H        14.7977508051       11.4056628639        5.2541442232
  H        14.2170220637       10.8751514238        6.6981072566
  C        13.8323647663        9.6352335752        5.1194412650
  C        18.5979699818       14.4677704887        3.6751049409
  C        15.6692670400       12.8768837419       10.6183406524
  H        16.1245094965       14.5990678441        9.4531041115
  C        15.3463844113       11.1394960747       11.8517153864
  H        12.8349351961       10.1376326860        5.1378259006
  H        13.7659307174        8.6493497185        5.6527255042
  C        14.1972007845        9.5443701556        3.6006988721
  C        18.5772568781       15.8551916248        3.3904157556
  C        18.9709160882       13.6720493904        2.5385429461
  C        15.2778163332       13.6483593895       11.8979546896
  C        15.1452718014       12.2363897835       12.7158027770
  S        15.1507582274        9.6425542073       12.6508316551
  H        14.7889225468        8.6388814687        3.4586695903
  H        14.9652457247       10.3390151952        3.4922380130
  C        12.9413820334        9.4593820176        2.7067470519
  N        18.2266891436       16.8397127688        4.3702332298
  C        18.8570214412       16.4765610003        2.1869353797
  C        19.2750207196       14.2503929645        1.3192381554
  H        18.9269317769       12.6477214930        2.6939124186
  C        13.8717964719       14.3233729886       11.7946143039
  C        16.3569851417       14.5551038509       12.5629057224
  C        14.7724393531       11.7401880317       13.9808696371
  C        14.7420973482       10.4122356686       14.1648332118
  H        12.3961565474        8.5350538479        3.0176775580
  H        12.2923834091       10.3145826251        2.8337867100
  C        13.2293439691        9.0983888319        1.2307449674
  S        18.2537340774       18.3020189023        3.6688902631
  N        18.6556387819       17.8667625947        2.1970831904
  C        19.1935491139       15.6662307969        1.0578087692
  H        19.7551871682       13.6005173595        0.6451016990
  H        14.0187278993       15.0767895739       11.0426302320
  H        13.6521237862       14.7182828053       12.8076977536
  C        12.7483553276       13.3790100287       11.2451148436
  H        16.7918835892       15.2000102202       11.7642492809
  H        15.9511036723       15.2125637806       13.4264997829
  C        17.4119792444       13.6584844850       13.2340443920
  H        14.6889412605       12.4378095870       14.7275535285
  C        14.4505828550        9.6424747443       15.3867228400
  H        12.5202029963        8.3688303007        0.8095520656
  H        14.2182295024        8.6982217131        1.0604527052
  C        12.9306206929       10.4089712284        0.4106770675
  C        19.4665157777       16.3652051353       -0.2236325927
  H        13.0749071291       12.9030646383       10.3013248821
  H        12.5459186322       12.6061208121       11.9672156998
  C        11.4170576707       14.1117966354       10.8780135660
  H        17.5560042675       12.7424936336       12.6476456465
  H        17.0288833602       13.2924101908       14.2286688285
  C        18.7751124927       14.2647287852       13.4747380224
  C        14.3103781717        8.2479580961       15.5431602732
  C        14.1612850345       10.4251154544       16.5920736707
  H        11.8956767526       10.6342231440        0.5065325031
  H        13.5509127622       11.2338437398        0.8087939677
  C        13.2649061590       10.0896674786       -1.0861250736
  H        19.6170778432       17.4686807369       -0.2516601890
  C        19.7089835017       15.8813001523       -1.5070247069
  H        11.7588311546       15.0699101554       10.4699655548
  H        10.9356316972       14.4413121273       11.7591291695
  C        10.4774084424       13.1536353671       10.1658502665
  H        19.1892239684       14.4544247686       12.5068354662
  H        18.8433640816       15.1492564421       14.1068029944
  C        19.6585311888       13.2112486905       14.1859839629
  N        14.4468939989        7.3986147496       14.4003221669
  C        14.0478761226        7.5665218266       16.7173308465
  C        13.9639795848        9.8701403722       17.8353255097
  H        14.1851538515       11.5339035587       16.4860643939
  H        13.1006795888        9.0783031087       -1.3684495130
  H        14.3280234854       10.1530542810       -1.1525479477
  H        12.8260942182       10.8072494438       -1.8655882981
  S        19.8569758787       14.2056002289       -1.8921329217
  C        19.8085618875       16.8367877545       -2.5828510627
  H        11.1787624254       12.6589983419        9.5168505241
  H        10.0942297915       12.4805538521       10.9203279166
  C         9.3636843420       13.8667455819        9.3777668641
  H        19.5797018871       12.2040276183       13.7823859071
  H        19.4924177688       13.0698839420       15.2586053593
  C        21.1188081711       13.5112004474       13.9814133056
  S        14.6554402459        5.8457558023       15.0192052766
  N        14.1126589939        6.1483755547       16.5203904657
  C        13.7987606975        8.3439279659       17.9174739349
  H        13.7216761802       10.4617127927       18.6516775078
  C        20.2371616163       14.8175376023       -3.5500871786
  N        20.1909544870       16.1818393476       -3.7068515527
  O        19.6658781308       18.0625188914       -2.4534875875
  H         9.0538909276       14.6529195669       10.1554455789
  H         9.7712124814       14.4858085000        8.5408422808
  C         8.2068003778       12.9639150956        8.9121937026
  H        21.7196483484       12.6909867772       14.4056748623
  H        21.4244485593       13.4571204614       12.8807937615
  C        21.6230170251       14.8687656203       14.5173109880
  C        13.3112475315        7.5709021483       19.0714867767
  S        20.8201193525       13.9132034986       -4.9394482710
  C        20.3570686284       16.9152033490       -4.9826781435
  H         8.3500426003       12.5985561641        7.9040193327
  H         8.1866534072       12.0200485281        9.4838652141
  C         6.8919770442       13.6732667850        8.8773903617
  H        22.1818177169       14.7792677425       15.4490578939
  H        20.8104109686       15.5222762450       14.6452517939
  C        22.4737009772       15.7010732870       13.5590148560
  H        13.2842848612        6.5102894352       18.8937410362
  C        12.8799318277        7.9501908482       20.3486474311
  H        20.9895481665       16.4260619290       -5.7710413791
  H        20.7820733577       17.8777418205       -4.9305370842
  C        18.9479690612       16.9390890012       -5.6440209059
  H         6.2403709289       13.4657512379        8.0857830702
  H         6.9904074628       14.7914413596        8.6956694967
  C         6.2035726898       13.5282848630       10.2354786940
  H        23.4866890955       15.3726962242       13.5319438681
  H        22.0138550448       15.6073630332       12.5732228154
  C        22.5353031144       17.1729448441       14.0828822078
  S        12.3138696760        9.4736466827       20.7573234525
  C        12.5941294000        6.8647283899       21.3836828183
  H        18.7706821063       17.8418524106       -6.2196719893
  H        18.1949097913       16.9275512038       -4.8601651381
  H        18.7228880638       16.1640129602       -6.3756275230
  H         6.7324678758       12.8609753834       10.8880430315
  H         5.9996207143       14.5351381965       10.6497052609
  H         5.2472079386       13.0969757728       10.0283653392
  H        22.3445996131       17.8275804504       13.3043420936
  H        21.8635859573       17.3830691671       14.9174997747
  H        23.5776982815       17.5511105492       14.4117637356
  C        11.9254655386        8.8238309539       22.3859241280
  N        12.0552105293        7.4664295944       22.4947195973
  O        12.8945350662        5.6970225705       21.1407179416
  S        11.5624603171        9.7740302982       23.8321530027
  C        11.8802606481        6.7446704738       23.7988829848
  H        11.7833192776        5.6791956852       23.5262666656
  H        11.0551357907        7.1825108374       24.3473941891
  C        13.0963759133        6.9719575712       24.7060132935
  H        13.6852049485        6.1891462156       24.5559177191
  H        12.8203266370        7.0638092204       25.7084770539
  H        13.6555133777        7.8735896142       24.4183172518
