352
 i =    33100, time =    33100.000, E =        24.9620864519
  H        12.9194853202        6.6168280301       32.0719144600
  C        12.0012071895        6.0552683487       32.0586863657
  H        12.3670480415        5.0932437117       32.0149420469
  C        10.9818036491        6.4631692901       31.0569596184
  C        11.5500520100        6.2901171827       33.4819338601
  C        11.3712054109        5.9963939655       29.6141930945
  H        10.0672923182        5.8769285301       31.2197318798
  H        10.7949918574        7.5444572296       31.0869699555
  H        10.9959334522        5.4894598047       33.9275721520
  H        12.4013952858        6.4783987718       34.0959075541
  H        11.0632706571        7.3031365717       33.6216955839
  C        10.2265594040        6.3515836810       28.6577804658
  H        11.4845163824        4.9283539372       29.4432667993
  H        12.2294142818        6.6146177468       29.2100774277
  C        10.5530942155        6.0587583707       27.1996600728
  H         9.2931627053        5.8412548338       28.9577147256
  H        10.0172911799        7.3757701626       28.8761565106
  C         9.3551066199        5.4000524144       26.5174862333
  H        11.3471743886        5.2964012875       27.2896698715
  H        11.0492420430        6.9561696497       26.7353367155
  C         8.2511165046        6.3671421752       26.0336391203
  H         9.7161760914        4.9450047361       25.5804660676
  H         8.9884403598        4.5637265920       27.1633048553
  C         7.1974434795        5.6172408967       25.2072980977
  H         7.7914509333        6.7246617317       27.0003044445
  H         8.6330019720        7.2940005795       25.5541784946
  C         6.9476889302        4.2600142384       25.8954915339
  C         7.8035899279        4.8788034853       23.9704015699
  C         5.8971782420        6.5123214419       24.9071453840
  C         7.2155049943        3.1206954120       25.0852163274
  C         6.3321818715        3.8896010423       27.0970332433
  C         7.7889032597        3.5315547994       23.8706422443
  C         8.3552050613        5.5432831915       22.8914317334
  H         6.1163737365        7.2103717252       24.0895545354
  H         5.6762126671        7.0309101136       25.8056912104
  C         4.6575864076        5.6863801287       24.5947283855
  S         6.8591393829        1.6609734431       25.8855697394
  C         6.3230434806        2.5182571839       27.2975154348
  H         5.9562187220        4.6530261180       27.7904019731
  C         8.2857178643        2.8833262399       22.7965712322
  H         8.3151334292        6.6026878695       22.7588588841
  C         8.8712744853        4.8508267847       21.8132345650
  H         4.8996367483        5.0175795625       23.7794265897
  H         4.4199301247        5.0304090126       25.3924963022
  C         3.3735073625        6.3971814017       24.2608604702
  C         5.8561188485        1.8117737011       28.5359748210
  C         8.7978415720        3.5433992859       21.6831974291
  H         8.0409019370        1.8435680508       22.8309157107
  C         9.3335632873        5.2098704084       20.5680772637
  H         2.9999997260        5.9701886531       23.3315779858
  H         3.8167724331        7.3763469351       24.0783108715
  C         2.3628676848        6.6181312908       25.3527667364
  C         5.8712686230        0.3919406821       28.7659087182
  C         5.5891144262        2.6961723363       29.7233551730
  C         9.2214570534        2.7750277249       20.4852783406
  C         9.5827868159        4.0837992279       19.7780004459
  S         9.6199824202        6.6842887749       19.7208257598
  H         1.5319959431        7.2694859291       24.9898181120
  H         2.8327379536        7.1740765294       26.1345906771
  C         1.6978806277        5.2365689314       25.8198879689
  N         5.9903273159       -0.5313744264       27.7315910362
  C         5.7317545460       -0.1889715097       29.9997270186
  C         5.3219968467        2.0752198919       30.9140806576
  H         5.5108699458        3.7911068803       29.7304358850
  C         8.0169251873        2.0730728445       19.7782853240
  C        10.4893060762        1.9167642494       20.7187974016
  C        10.0569689009        4.5215268094       18.5114072370
  C        10.0201721745        5.8487269810       18.2822565198
  H         1.0394986651        4.9971487965       25.0012296785
  H         2.3757738067        4.3784255082       25.7146416528
  C         0.8961770177        5.4201912403       27.0804975271
  S         6.2469143165       -2.0281019087       28.4203781361
  N         5.8792753887       -1.5936642778       29.9256926588
  C         5.4744716105        0.6146207016       31.1568341431
  H         5.1277992315        2.7531676099       31.7029098744
  H         7.7607056148        1.2209849986       20.4167252855
  H         8.4449688430        1.7799435267       18.8278362553
  C         6.7728472409        2.9555214300       19.5832255828
  H        10.4858350965        1.0577777091       20.1019575505
  H        10.3206669962        1.4023286366       21.6749650858
  C        11.8245756142        2.6687331282       20.8107276982
  H        10.2247115208        3.7091093787       17.7731151977
  C        10.3246486903        6.5332405061       16.9991436224
  H         0.2887142697        4.4599708292       27.3419683696
  H         0.0266846056        6.1348560028       26.9463834163
  C         1.6342557316        5.8565391975       28.3549833454
  C         5.1748008162       -0.0821926976       32.3476938505
  H         6.9018119956        3.9021276812       19.0623679833
  H         6.3423088181        3.1213579302       20.6245174745
  C         5.6681021479        2.1574573060       18.8590219094
  H        11.8180981695        3.3403922371       21.6408089654
  H        11.9532126468        3.3167295672       19.9576170885
  C        13.0688109247        1.7771998236       20.9802411141
  C        10.3994415715        7.9024688517       16.7253923081
  C        10.7395350109        5.6448765363       15.8116821785
  H         2.1287854281        6.8183324491       28.1975079780
  H         0.8878450275        6.2233843250       29.0393732763
  C         2.6529942649        4.8588630081       28.8315985230
  H         5.3749805896       -1.1399215584       32.3496526235
  C         4.8787525479        0.4417597980       33.5983309434
  H         5.1480304431        1.4425323996       19.4882788565
  H         6.2785679824        1.5898519974       18.0755360786
  C         4.7375879675        2.9204261377       18.0022786308
  H        12.8662590369        1.1384251098       21.8768151676
  H        13.2873515550        1.1286472489       20.0824472271
  C        14.4020221320        2.5116540340       21.1807523843
  N        10.0799727350        8.8526361178       17.7079117271
  C        10.7572827326        8.4484178247       15.5505476220
  C        11.1460475396        6.2257587355       14.6072737984
  H        10.6803326723        4.6132642973       15.8386801887
  H         2.6271636972        3.9295841429       28.2585558135
  H         3.6328233654        5.2864883507       28.6193612229
  H         2.6518157045        4.7499126488       29.9314457817
  S         4.5687625489        2.0705765006       34.1382752633
  C         4.8445746109       -0.5815618944       34.7156844576
  H         4.4088482434        3.8846967224       18.4408067852
  H         5.1964612852        3.1155607490       17.0582920842
  C         3.4480726268        2.1221781768       17.7275247617
  H        14.4457391454        3.4066694462       20.5834681145
  H        15.2620895615        2.0084279941       20.6608053540
  C        14.7548790801        2.9591938475       22.6870545308
  S        10.2997958448       10.3551234559       17.0011742815
  N        10.8814661908        9.8150942979       15.6251192142
  C        11.1693616481        7.6748183439       14.4379227547
  H        11.4804480766        5.5982864241       13.8100627865
  C         4.2864537547        1.4096756702       35.7343443824
  N         4.4585853446        0.0806694055       35.8127454886
  O         5.0642331990       -1.7682513182       34.6149400163
  H         2.6954177226        2.7312668057       17.2152449071
  H         2.9701974847        1.7498017715       18.6523955749
  C         3.6324052980        0.8278698883       16.8962716150
  H        15.3159754398        3.8934939813       22.6324613319
  H        13.7902750854        3.3584948749       23.1089701517
  C        15.3881974406        1.8367154156       23.4721616219
  C        11.4803236400        8.3745601033       13.2167696866
  S         3.8662477870        2.2897611392       37.2042204650
  C         4.2966123289       -0.6891714481       37.0861779170
  H         3.4866531677        0.8970844183       15.7902645387
  H         4.6766413902        0.5959820785       16.9834983415
  C         2.7563283138       -0.2726290168       17.5026687875
  H        15.2754545480        0.9228391992       22.8969000671
  H        14.7285084650        1.4773691473       24.2529656600
  C        16.9028289498        2.0695766489       23.8569811920
  H        11.0824769902        9.4019310715       13.2565254224
  C        11.8930177331        8.0403200881       11.9607553158
  H         3.6260283487       -0.2678559453       37.8216948183
  H         3.7198175190       -1.5785334951       36.9274331851
  C         5.6353620305       -1.0260856024       37.7776286588
  H         1.6924819577        0.0183293623       17.3749746962
  H         3.0583235940       -0.3593452305       18.5877333302
  C         2.8600664633       -1.7118904627       16.9595089089
  H        16.9278731417        3.0121401895       24.3860358707
  H        17.2563413101        1.2797850977       24.4621257373
  C        17.7586815598        2.1855899051       22.5939490254
  S        12.5284603661        6.4766469215       11.4832189462
  C        11.9166708212        9.1204187708       10.9690781664
  H         6.4566462226       -0.5726267819       37.1952559571
  H         5.8710093636       -0.6568946815       38.7597973592
  H         5.8094207459       -2.1162711622       37.7974466315
  H         2.1364146187       -2.4468703944       17.4811650100
  H         3.8572467529       -2.1107095049       17.1670613496
  H         2.6326909856       -1.6478006630       15.9015069132
  H        17.4747501490        1.3961683385       21.8250675529
  H        18.8332443061        2.1754410571       22.8973236641
  H        17.5958834203        3.1552682846       22.1635225376
  C        12.8098440982        7.3040217901        9.9457189688
  N        12.5199235403        8.6183939929        9.8722488156
  O        11.6596403349       10.3245768561       11.1601740806
  S        13.5935623850        6.5484591205        8.5073972104
  C        12.4635439991        9.3832254376        8.6655447669
  H        12.5963123639       10.4322106832        8.9219607371
  H        13.3049635790        9.0962310578        8.1249496834
  C        11.0806259973        9.2495874115        7.9779744631
  H        11.0961240741        8.5063360056        7.1333694273
  H        10.4381591178        8.8227438995        8.7702954233
  H        10.7139625491       10.2609486393        7.6628642660
  H        21.1167637814       11.6161501287        3.8999354940
  C        21.7923632363       10.7716497637        3.7434564029
  H        21.1747778890        9.8445847353        3.6512421955
  C        22.6963584033       10.6760778110        4.9194098211
  C        22.4858785592       10.7404920866        2.3957842869
  C        22.0859345068       10.7932071828        6.2747979461
  H        22.9970326110        9.6576436088        4.9734889084
  H        23.6018284631       11.2269846910        4.7790554533
  H        23.2128966845       11.5611740902        2.1755721376
  H        21.7976459753       10.7439108499        1.4496700273
  H        23.0618634450        9.8967533093        2.1789840689
  C        21.0719128612        9.6492592855        6.6238024464
  H        22.8774829882       10.8267128453        7.0572684100
  H        21.6148319187       11.7220104524        6.3843515469
  C        20.3012183887        9.9111601246        7.9002913362
  H        21.5237347049        8.7038787455        6.7140212687
  H        20.3831139066        9.6385242688        5.7889938694
  C        18.9997920940       10.7832592944        7.7982358663
  H        20.9072534740       10.3239121536        8.7203838149
  H        19.9807571577        9.0134523854        8.4723544642
  C        17.7838994180       10.0531288566        7.2464762326
  H        18.7535701902       11.1644337017        8.7411604185
  H        19.4580081318       11.5200446822        7.0950830407
  C        16.5857201094       11.0641174589        6.9571171553
  H        17.4949470485        9.2243684290        7.9215607264
  H        18.0553570780        9.6540742184        6.2237458936
  C        17.0861470168       12.4067892442        6.3358269191
  C        16.2871179970       11.7688091404        8.2529555284
  C        15.3493562395       10.3538309244        6.2202062927
  C        16.9784202784       13.5293317215        7.0897064176
  C        17.4950606713       12.7922996753        5.0398980873
  C        16.4965607879       13.1141575023        8.3796813317
  C        15.8693924490       11.1559991551        9.4426619021
  H        15.8312624902       10.0129399600        5.2617295205
  H        15.0749681624        9.4841974059        6.7460186478
  C        14.1891284059       11.2316089705        5.6996173442
  S        17.4316764493       15.0302009867        6.3999598787
  C        17.7174397696       14.1695973044        4.9177895179
  H        17.7261104787       12.0221895550        4.3360883688
  C        16.3614540523       13.7175214382        9.6192806191
  H        15.7018197208       10.0641840558        9.4174948958
  C        15.6676402280       11.7792059157       10.6085204241
  H        14.6620385238       12.0535574126        5.1869624644
  H        13.5201819960       11.6098339160        6.4612871610
  C        13.3716360719       10.5515294704        4.7445596867
  C        18.2685844328       14.7769390163        3.6401856317
  C        15.9022165952       13.0987324986       10.7599397061
  H        16.5666974802       14.8077088408        9.6735057879
  C        15.2593028179       11.3247887977       11.8295758741
  H        12.3220413453       10.9699662816        4.6686583826
  H        13.2284360624        9.5199043687        4.9657921987
  C        13.9711087829       10.5970046282        3.3643340282
  C        18.3021028960       16.1410914951        3.2854846835
  C        18.8621033588       13.8887344907        2.5786773418
  C        15.6115125717       13.7909212213       12.0798576039
  C        15.2158050795       12.4089075450       12.6594622229
  S        14.9121370713        9.8060062717       12.4937963334
  H        14.8510315557        9.8658143953        3.3774295041
  H        14.3235856761       11.5549593701        3.1537861873
  C        12.8926606255       10.1095730084        2.3796685404
  N        18.1221921576       17.1671893557        4.2102325764
  C        18.5767391602       16.5880190479        2.0547262288
  C        19.0896171320       14.3329248112        1.2511459728
  H        19.0968362617       12.8275761048        2.7974442102
  C        14.3437845513       14.6853465446       11.8728068546
  C        16.7390977162       14.5650229858       12.7523930823
  C        14.8281152595       11.9779602115       13.9272744447
  C        14.4785641531       10.5904515609       14.0296337747
  H        12.7030035347        9.0440478968        2.5298963048
  H        12.0021626809       10.6640410385        2.5551113625
  C        13.4790543619       10.2480888431        0.9805262764
  S        18.0695947296       18.6046187361        3.4443064508
  N        18.3513050868       18.0354307145        1.9380843885
  C        18.8528654462       15.7710106497        0.9476886472
  H        19.3499391330       13.6346026293        0.4682093434
  H        14.6680415240       15.6859672466       11.4770196460
  H        14.0499677845       15.0042367825       12.8959736164
  C        13.2381371078       14.0589409251       11.0843754215
  H        16.9111824773       15.4024616668       12.1468889840
  H        16.3051428893       15.0054549616       13.5939695930
  C        18.0316235392       13.8059019305       13.0687698659
  H        14.7730609319       12.7197082934       14.6944212260
  C        14.3448618015        9.8485333221       15.3614698178
  H        14.1958209533        9.4785219377        0.9749346624
  H        13.9224303954       11.2416580687        0.7955068523
  C        12.5158115573        9.8365478315       -0.1438169416
  C        19.0382691667       16.3864399396       -0.3167110801
  H        13.5410134542       13.9882401814       10.0704148431
  H        13.1525092197       13.0480924759       11.3733300967
  C        11.8135362457       14.5775691735       11.2729482318
  H        18.5082087343       13.4054526286       12.1470834530
  H        17.8802481179       12.9265265598       13.6413689397
  C        19.1488156077       14.5913946994       13.8198919483
  C        14.3958309523        8.4428800405       15.4683074006
  C        14.2457718561       10.6311532182       16.6913898265
  H        12.4805767979        8.7920062014       -0.2772565939
  H        11.5817811735       10.1858409857        0.2507347629
  C        12.9794906749       10.5801584664       -1.4061557088
  H        18.6973616364       17.4142556787       -0.3185791522
  C        19.1909137069       15.8695456503       -1.5397003789
  H        11.6835652717       15.5131800661       10.6786170693
  H        11.7779884411       14.9084723507       12.2750348785
  C        10.8126739864       13.4880496193       10.8613684203
  H        19.6106808783       15.2372633338       13.0432650916
  H        18.7907018843       15.2499164775       14.5979105113
  C        20.3045680802       13.6246044415       14.1885932115
  N        14.5592800523        7.6536871400       14.3582973922
  C        14.2404514945        7.7988359218       16.6605666637
  C        13.9956198750        9.9703030079       17.8784518331
  H        14.2620462732       11.6897317861       16.5072424165
  H        13.9516661282       10.1716497498       -1.7140184870
  H        13.0484805531       11.6045543352       -1.2604540540
  H        12.2943205725       10.3938015013       -2.2198227335
  S        19.5409536304       14.3069874567       -1.9740842298
  C        19.3091752645       16.7858328864       -2.7364728884
  H        11.4314484247       12.8615791145       10.2900682872
  H        10.5399307761       12.9458004683       11.7787569305
  C         9.7739087858       14.0445758717        9.9809356846
  H        20.1582565960       12.8251168325       13.4741836268
  H        20.1159387379       13.2581984058       15.2290766880
  C        21.6961405258       14.2182443158       13.9934342375
  S        14.6626221716        6.1258478053       14.9076946918
  N        14.2402780663        6.4089978529       16.4282892492
  C        13.9909648234        8.4439085511       17.9060366807
  H        13.7296971873       10.5502478114       18.7543499972
  C        19.8535378331       14.8794819264       -3.6502744392
  N        19.7380854486       16.1433825025       -3.8098085842
  O        19.0986112869       17.9889425512       -2.6778509710
  H         8.9992507492       14.3551251347       10.7338360583
  H        10.2124479881       14.8434142867        9.4006718640
  C         9.2285323617       13.0052793315        9.0788043649
  H        22.4491614385       13.4270914914       13.9713681763
  H        21.6102614056       14.6830487292       12.9908140113
  C        22.1342638789       15.2799975473       14.9528661635
  C        13.6076349915        7.5859016487       19.0096730420
  S        20.3730305151       13.7994341153       -5.0039340385
  C        19.7382464233       16.7540811687       -5.1335784199
  H         9.9960606906       12.7573206258        8.3372857884
  H         8.9964946577       12.0627728124        9.5206494327
  C         7.8857407000       13.4879964444        8.3974938349
  H        22.9917828296       14.8985407301       15.5463511018
  H        21.5349114130       15.5192360991       15.7709993223
  C        22.6795583920       16.5522052039       14.2882341584
  H        13.8674585820        6.5420955685       18.8120803025
  C        13.0070517552        7.7915254886       20.2473042400
  H        20.4264230323       16.4078922458       -5.9110958922
  H        19.9169561668       17.8317166548       -5.0312440355
  C        18.3085286794       16.7518036210       -5.6077429616
  H         7.5129366326       12.8482963906        7.5966826155
  H         7.9433380515       14.4896132222        8.0362307253
  C         6.7083026986       13.4456660901        9.3268905967
  H        23.4605957869       17.0172456159       14.8676021039
  H        23.1889467341       16.3687292812       13.3415738757
  C        21.6492632945       17.7430829215       14.1744942663
  S        12.4616020883        9.3366397962       20.9061589121
  C        12.9334589708        6.6382061025       21.1992896855
  H        17.6292564272       16.4134869219       -4.8534070946
  H        18.2909545411       15.9858451539       -6.4603700428
  H        18.1223248767       17.7619286858       -5.8901697809
  H         6.7792899012       14.2581467302       10.0104043645
  H         5.7790855409       13.5640538237        8.6445818428
  H         6.6947643918       12.5189083456        9.9303878924
  H        21.9010870451       18.6696643898       14.8054465551
  H        21.5418866314       18.1304621065       13.1455780522
  H        20.6354964613       17.4729002512       14.5323351992
  C        11.8953948835        8.3855002334       22.3603968741
  N        12.1568358690        7.0400503816       22.2763857264
  O        13.3152183471        5.4852164920       20.9324716961
  S        10.9927824866        8.9956816053       23.8542433617
  C        11.9224616635        6.1210574697       23.3657174272
  H        11.7936133812        5.1144857607       22.9566714415
  H        11.0637275490        6.3713623108       23.9704169667
  C        13.1490169606        6.1867222319       24.3266092948
  H        14.2085545671        6.1933834407       23.9349335669
  H        13.1399511784        5.3802472593       25.0748692447
  H        13.1001004368        7.0018647677       24.9823631627
