352
 i =    36800, time =    36800.000, E =        25.3271468560
  H        11.2847121651        7.3506753036       32.6995037180
  C        11.2765085792        6.2764835598       32.4013830412
  H        12.0769016994        6.1572273695       31.7149537921
  C        10.0834197148        5.9027213770       31.5460267292
  C        11.4335878394        5.3887841137       33.6426536337
  C        10.0357037855        6.5980115715       30.1683243693
  H        10.0704337937        4.8233792434       31.3879477093
  H         9.1722668201        6.1019337019       32.1202171809
  H        12.1308836557        5.8634698911       34.2921668566
  H        10.4986583369        5.3788389636       34.1800655317
  H        11.8141602653        4.4164997054       33.4868206943
  C         9.8764778310        5.5492374402       29.1194972598
  H        10.9618522291        7.0568095121       29.9153524064
  H         9.1850481670        7.2637634679       30.2784817036
  C        10.4064640949        5.8392551945       27.7613634634
  H        10.4257601299        4.6554116882       29.3657565464
  H         8.8814836485        5.3246651353       29.0296070714
  C         9.4191408670        5.2283357316       26.7378762043
  H        11.4260405263        5.3565811211       27.8525482086
  H        10.4923393777        6.9642266929       27.5776458271
  C         8.1044164330        6.0293124471       26.4623754958
  H         9.8294582754        5.0943679317       25.7306284507
  H         9.2524306476        4.2260575964       27.0761445947
  C         7.0100706380        5.3542070007       25.6593122205
  H         7.6230954658        6.4161688508       27.3566472707
  H         8.4551073130        6.8354378040       25.7783161175
  C         6.7484230738        4.0150749329       26.3251419155
  C         7.5250535658        4.5823819604       24.4257213479
  C         5.7003532293        6.1616545224       25.5215730362
  C         7.0772479603        2.8795968562       25.6254585665
  C         6.3028613977        3.6739662639       27.5790695305
  C         7.4928722504        3.2393584289       24.3690922481
  C         7.9885632952        5.2367181876       23.3448244739
  H         5.8631940223        6.9441841029       24.8261879200
  H         5.5197979327        6.7191435532       26.4143727007
  C         4.4749228206        5.3811314404       25.1154143676
  S         6.8421299677        1.4504048061       26.4875643111
  C         6.2804956184        2.3391263708       27.8539207964
  H         6.0287614314        4.4499941833       28.2882721806
  C         7.8397880130        2.5926872838       23.2045101294
  H         8.1067689309        6.3043453865       23.4236173328
  C         8.3701182904        4.6026271117       22.1853768369
  H         4.6916608796        5.0550226705       24.0736832753
  H         4.3365891706        4.4706980836       25.7123745105
  C         3.1435770804        6.2184350111       25.1268190266
  C         5.8776099439        1.6524220219       29.1409082873
  C         8.2582544707        3.2673290605       22.0406113490
  H         7.7838907120        1.5524481458       23.0753951325
  C         8.8484010815        4.9581043795       20.9606334005
  H         2.4359462708        5.6875389264       24.5095526768
  H         3.2266173608        7.2183734963       24.6611300405
  C         2.5744064342        6.3650626490       26.5913164730
  C         5.9172929878        0.2377903402       29.4345551107
  C         5.4954026769        2.5496493886       30.2497284652
  C         8.5449226671        2.5334075299       20.7427697837
  C         8.9474812775        3.8661421041       20.1015016985
  S         9.2946804137        6.4405512256       20.2040548403
  H         1.5746923417        6.7384674335       26.5205441016
  H         3.2144583938        7.0695888207       27.0731853237
  C         2.4371813878        5.1149194142       27.4546774297
  N         6.1930852151       -0.7348910039       28.4916285305
  C         5.6186067880       -0.3617818188       30.6841204206
  C         5.1683720917        1.9424418401       31.4493162137
  H         5.2529179138        3.5750534239       30.0904590899
  C         7.3661495155        1.8795702490       20.0315152536
  C         9.7530692529        1.5539049400       20.7761289685
  C         9.3022526044        4.2672564586       18.8227323072
  C         9.4631159613        5.6125819310       18.6800037647
  H         2.3407762098        4.4035829206       26.6171832003
  H         3.2606466591        4.8488087789       28.0701748212
  C         1.2973599034        5.0924281258       28.4215913897
  S         6.1323612121       -2.1920208969       29.1541952186
  N         5.5493840152       -1.7656744540       30.6062010567
  C         5.3914032193        0.4633453005       31.8270520102
  H         4.8417263113        2.5562858442       32.1989433784
  H         7.0428693241        1.0039475126       20.6421835921
  H         7.6585184082        1.3026716777       19.1049018207
  C         6.3128869404        2.9508014686       19.6264730170
  H        10.0232978502        1.2335250737       19.7949985810
  H         9.4210315145        0.7326842015       21.4061625486
  C        11.0110804059        2.3143348629       21.2288925796
  H         9.2326936016        3.4180829313       18.1123025140
  C         9.7978547393        6.2821439079       17.3786991961
  H         1.4270253497        4.0099001687       28.7579657589
  H         0.3637254775        5.2487732229       27.8972343249
  C         1.4929480011        6.1741880460       29.4779298994
  C         5.1339196231       -0.1976432411       33.0528729478
  H         6.6741337284        3.4202750711       18.7119123126
  H         6.2821174526        3.7839653039       20.2670345692
  C         4.9440459745        2.3279054458       19.5067585723
  H        11.0364288972        2.7571970774       22.2512634747
  H        11.2619858909        3.0609894912       20.5102730221
  C        12.1760264423        1.3506096602       21.2130546564
  C         9.8781551744        7.6990176878       17.1440139806
  C         9.7930742833        5.4295284202       16.2024911149
  H         2.5275018511        6.6128545287       29.3733529540
  H         0.7631396076        6.9225066328       29.3815156748
  C         1.3692105905        5.6042623439       30.8756390488
  H         5.3078348053       -1.2364444776       32.9415947479
  C         4.6759228625        0.2061902401       34.3023660513
  H         4.3729488724        2.7112308508       20.3630340946
  H         5.0204408474        1.2392299635       19.6918995635
  C         4.1248144581        2.6263814557       18.2598634625
  H        12.1977822568        0.8073467082       22.1802424018
  H        12.1146951230        0.5276438072       20.4674839373
  C        13.5056032729        2.0085798916       20.9883290091
  N         9.7225208462        8.6513103130       18.1672418586
  C        10.0869146549        8.2012596934       15.8850510061
  C         9.9856917363        5.9236945333       14.9083811330
  H         9.5613146844        4.3560475597       16.3090041658
  H         0.5090175989        4.9133681677       30.9172746727
  H         2.2274405175        5.0989593104       31.2703027343
  H         1.2338585804        6.4246431212       31.5599587621
  S         4.3477126555        1.8493256675       34.7712912040
  C         4.6788475529       -0.8203029671       35.3098998064
  H         3.8348380479        3.6482612215       18.3516923816
  H         4.7912759563        2.5245945926       17.3533042445
  C         2.8508665519        1.7608922381       18.1968479000
  H        13.4673645685        2.8736826799       20.3441337426
  H        14.0964230414        1.2549466914       20.4836810596
  C        14.1677842972        2.5093719665       22.2458125269
  S         9.7950564745       10.1157576923       17.3448319578
  N        10.1293690330        9.6106704768       15.8694145261
  C        10.1482537923        7.4118640043       14.7206986498
  H        10.0769479499        5.1848440216       14.1179342020
  C         4.0606067321        1.0880524195       36.3673064167
  N         4.1229207161       -0.2640952388       36.4223246040
  O         4.9035000132       -2.0539839003       35.1290047569
  H         2.1862151955        2.0063223517       17.3930098099
  H         2.2623427369        2.0714163911       19.0362461560
  C         3.0791518465        0.2532679900       18.1550710768
  H        14.6390584687        3.4271715402       21.9587729943
  H        13.3957028196        2.6439444262       22.9852760211
  C        15.1340574742        1.3968260668       22.7522858409
  C        10.4637241647        8.1183043251       13.4506421101
  S         3.5931616792        1.9273637404       37.7646037550
  C         4.1438877561       -1.1297405444       37.6222375038
  H         4.1206156206        0.0455642209       17.7157435705
  H         3.0166109488       -0.1598508309       19.1603553794
  C         2.0173747284       -0.4392051949       17.2540904439
  H        15.5568584943        0.8602661466       21.9289174404
  H        14.5508067191        0.7564898340       23.3892818433
  C        16.3717055272        1.9360776586       23.5119001835
  H        10.1365553694        9.1109031789       13.4252946539
  C        11.0586215796        7.7581390338       12.2920900855
  H         3.6065386454       -0.6563570567       38.4814220765
  H         3.5293147702       -2.0164434905       37.3919687338
  C         5.5471688649       -1.3561455953       38.2239519809
  H         2.0042603314       -0.0576815410       16.2182675407
  H         1.1139445302       -0.0250508034       17.6899168643
  C         2.2346815013       -1.9666695647       17.3406695122
  H        16.0247089783        2.8843006294       23.9809291924
  H        16.7039165362        1.2582218213       24.3789017796
  C        17.6281715114        2.1585246478       22.6713204770
  S        11.6639829563        6.1661519512       11.9983836474
  C        11.1421256407        8.7130500747       11.1553248678
  H         5.4685730391       -1.9618781021       39.0742719874
  H         6.1516015979       -1.9281637750       37.5733614003
  H         6.1357803321       -0.4200880980       38.3159071411
  H         2.9964464210       -2.2187396262       16.5836448682
  H         1.3382944715       -2.4728167856       17.1590387338
  H         2.5326317968       -2.1521414700       18.3520930588
  H        18.4811586738        2.1294296786       23.3373970086
  H        17.5151755459        2.9840622911       21.9486190281
  H        17.8377231281        1.3649108547       21.9644396179
  C        11.9185845376        6.7663214099       10.3513322469
  N        11.7286164490        8.1077923429       10.1406688561
  O        10.7702113796        9.9131146035       11.2465797413
  S        12.7933346631        5.7814164055        9.0960708350
  C        11.9279667210        8.7899716444        8.8652645569
  H        12.0309408899        9.8723072301        9.0612912089
  H        12.9222399816        8.4241415320        8.5557811955
  C        10.7996231746        8.6915489289        7.8706926891
  H        10.8268312450        9.5869582348        7.2534524863
  H        11.0417606063        7.9273605540        7.1640901847
  H         9.8228819331        8.4625215227        8.2460417956
  H        20.9464790862       11.4567096186        3.2983816879
  C        21.7083091134       10.6903265329        3.5160704589
  H        21.0945234217        9.8179668304        3.5847404999
  C        22.5768334073       10.8784124915        4.7758336627
  C        22.5392468416       10.4805152265        2.2768073489
  C        21.6964184078       10.9438779613        6.0648721563
  H        23.3100959764       10.1400533114        4.7672468979
  H        23.1734417472       11.7569806565        4.5805867849
  H        21.9389293077       10.2070467360        1.4774052306
  H        23.2015323951        9.7046964954        2.3711758373
  H        23.2121633900       11.3574750556        1.9476884127
  C        20.6482735899        9.8057746410        6.2229193033
  H        22.3875348262       10.7607218763        6.8471492764
  H        21.1803460362       11.9391118562        6.2820464095
  C        19.9454673601        9.7697125521        7.5705299326
  H        21.0167992282        8.8100818279        5.9339455398
  H        20.0089360116        9.9194286917        5.3412858491
  C        18.6475608751       10.5548802737        7.5281951480
  H        20.6582884839       10.2827853252        8.2665592793
  H        19.8457563294        8.8107692449        7.9592578362
  C        17.4866106696        9.7430910206        6.9996752551
  H        18.6331975469       10.8075967741        8.5952364884
  H        18.8874451644       11.5076064415        6.9586860487
  C        16.1637258303       10.5960226879        6.8680102951
  H        17.2190940802        8.8291266309        7.6205834524
  H        17.6268889483        9.2863461708        6.0415131122
  C        16.5273249551       11.9850942158        6.1792410150
  C        15.8048426718       11.3237138363        8.1529514502
  C        14.9427631444        9.9083723470        6.1216974428
  C        16.4149887665       13.0576145960        7.0931579937
  C        17.1297088132       12.3636891938        5.0060117486
  C        15.9589995517       12.6453284699        8.3447304133
  C        15.3866504644       10.5541433481        9.2507644817
  H        15.4202171436        9.5559434888        5.1852802599
  H        14.6308772777        9.1000721540        6.8253866115
  C        13.7265369397       10.8252491581        5.9006041993
  S        16.9476061031       14.5624380114        6.4135104118
  C        17.4099613232       13.7208074168        4.9397550231
  H        17.1107776784       11.6033912687        4.2656881800
  C        15.5700210223       13.2022766064        9.4898243723
  H        15.3736539227        9.4761736986        9.1779292932
  C        15.0545011159       11.1314527927       10.4453348697
  H        13.9130073215       11.7605628340        5.4192624826
  H        13.3316769938       10.9794129190        6.8652737517
  C        12.7722618658       10.0997715123        5.0670014325
  C        17.7675207739       14.4344094502        3.6759345068
  C        15.1026427127       12.4706802913       10.5965873576
  H        15.5574734023       14.2889777723        9.6343570987
  C        14.7330892976       10.6748638763       11.6862564383
  H        11.8066199374       10.5821257594        5.1489657322
  H        12.6950425784        9.0738846300        5.4514897820
  C        13.2930818896       10.0974462777        3.6044365530
  C        17.9495646878       15.7765386074        3.4569151748
  C        18.3734886427       13.6400568429        2.6047676713
  C        14.7821924536       13.1186266545       11.8529089002
  C        14.5639246566       11.7389352292       12.5179898347
  S        14.5086600592        9.1033184240       12.4345376177
  H        14.1787155800        9.4544586478        3.3949254500
  H        13.6258555634       11.1093990788        3.3689837437
  C        12.3496428491        9.9332836667        2.4518208278
  N        17.9601069807       16.6509627791        4.5349330056
  C        18.2967699041       16.4087957164        2.3030413135
  C        18.6436925644       14.1545280007        1.3518509540
  H        18.5332908310       12.5623313867        2.7737020281
  C        13.5095099665       13.9184500666       11.9264297084
  C        15.8311196079       13.9593724972       12.5444915250
  C        14.2152335571       11.3379313106       13.7778939293
  C        14.2321902166        9.9939686090       13.9027281516
  H        11.6843100270        9.1007096419        2.6193110401
  H        11.6411578625       10.7267387513        2.2390669990
  C        13.2035104542        9.6273391591        1.1564541143
  S        18.1478175107       18.1579065635        4.0156630382
  N        18.4735644078       17.8148748379        2.4091139308
  C        18.5019684864       15.6358199788        1.1061815435
  H        18.8391415329       13.3629696668        0.5921918459
  H        13.7519188451       14.8493497920       11.3661592272
  H        13.1855191509       14.2052129144       12.9621279117
  C        12.3639940813       13.2497197710       11.2140307141
  H        16.1732071098       14.5833989243       11.7510378803
  H        15.4048780915       14.5501545913       13.3020265254
  C        17.0037997253       13.2164219412       13.1500484589
  H        13.9645467340       12.0818112547       14.4614315608
  C        13.8643181301        9.3563303632       15.2021585009
  H        13.7557644356        8.6273387646        1.3198424019
  H        13.9511730375       10.3697267109        0.9565285872
  C        12.2599222411        9.3863528455       -0.0656714675
  C        18.8646024217       16.3493898542       -0.0929089040
  H        12.4119485061       13.3003493601       10.1435400704
  H        12.3120679107       12.1809314807       11.4607787703
  C        11.0287468455       14.0466996851       11.5049340293
  H        17.3670118670       12.5061241591       12.4082891091
  H        16.7576347819       12.6610640289       14.0908632099
  C        18.1341668675       14.2253816516       13.4695966742
  C        13.7426574774        7.9323980813       15.4402592701
  C        13.6889270479       10.1306698224       16.3835271391
  H        12.3568144241        8.2866256287       -0.3506601915
  H        11.1830156998        9.4497975585        0.2746735733
  C        12.7330277369       10.3178968217       -1.2407624583
  H        18.8618805128       17.3690904041       -0.1007415392
  C        19.1489496453       15.9207684677       -1.3425503540
  H        10.9246878094       14.8740862609       10.8420087138
  H        10.9962013606       14.2368835927       12.5784830235
  C         9.7887865136       13.2320535627       11.1417910468
  H        18.5172696564       14.7195972711       12.5814601406
  H        17.6591354439       14.9320593372       14.0731607434
  C        19.4062503276       13.6059805639       14.0722264324
  N        13.9460717693        6.9569382947       14.4719974922
  C        13.4465394805        7.3523920543       16.7004732964
  C        13.3033318174        9.5990867354       17.5860883881
  H        13.6643025039       11.1190187691       16.3073833649
  H        12.3801418649       11.2965524128       -1.0210629809
  H        12.3906942948        9.9663686916       -2.2097593560
  H        13.7947702428       10.2634018521       -1.4414953667
  S        19.3997584826       14.2419868225       -1.8220939200
  C        19.2051079612       16.8613534982       -2.4659794394
  H        10.0797046036       12.2835204986       10.7612127338
  H         9.2671371866       13.0302697007       12.0656854386
  C         8.7869633579       13.9077972573       10.1779008934
  H        19.6316538870       12.6883561734       13.4721947348
  H        19.3333174314       13.2507169016       15.0598409070
  C        20.6249453445       14.5570490148       14.0944921495
  S        13.7880560500        5.4988547930       15.1167596565
  N        13.4019705669        5.9308537344       16.6671694181
  C        13.1066334780        8.1307595474       17.8353434787
  H        13.1313237396       10.2647403421       18.4559358865
  C        19.6581196176       14.9241829984       -3.4559296105
  N        19.5135091733       16.2565201806       -3.6037067989
  O        18.9033313710       18.0865486539       -2.4172747017
  H         8.2233236903       14.6612552131       10.6734954427
  H         9.1948120570       14.4164939720        9.2533777653
  C         7.7907282368       12.8786483820        9.6635768858
  H        21.3073331267       14.0870764076       14.7749250725
  H        21.1047237935       14.7058810382       13.1796697326
  C        20.4303262469       15.9252342987       14.6796411867
  C        12.8357221432        7.4543619496       19.0919070398
  S        20.2530844524       13.8708788565       -4.8584209856
  C        19.7234506875       16.9830202890       -4.8146322834
  H         8.3561552757       12.1703741056        9.0515051603
  H         7.3423841873       12.3356919250       10.5081970759
  C         6.6766188675       13.5076263377        8.9437414552
  H        19.7764226871       15.8903845876       15.5639038014
  H        19.7374433914       16.3820921976       13.9787128374
  C        21.7055761461       16.7621748075       14.8818109156
  H        13.0603751175        6.4173086013       19.0195839940
  C        12.4228240883        7.8629428830       20.3530541586
  H        20.5216523931       16.6149363384       -5.4269265222
  H        20.1068628510       18.0379723637       -4.6989706147
  C        18.4640930374       17.0132878328       -5.6690121348
  H         6.3946624447       12.8399694994        8.1888139269
  H         6.9766643887       14.4691049778        8.5823547721
  C         5.5878060264       13.7284073325       10.0068545986
  H        21.4558846689       17.6564532422       15.4462623199
  H        22.4711908502       16.1742082869       15.4060075721
  C        22.1942609099       17.1192840867       13.4470988167
  S        11.9227582381        9.4633731027       20.8585697052
  C        12.3320547614        6.8674640466       21.4468112329
  H        17.5521407776       16.7760261067       -5.1011034736
  H        18.5603068157       16.2736565450       -6.4753768564
  H        18.2356728677       17.9915536095       -6.1339533530
  H         4.9873064287       12.8304043213       10.2712332192
  H         6.0046107078       14.2268310561       10.8990784822
  H         4.8692390428       14.3806095109        9.4447265321
  H        23.1546364747       16.7347968243       13.2706664391
  H        21.4162602928       16.7438219648       12.7531793878
  H        22.2904880438       18.1697356821       13.4659599600
  C        11.4464342620        8.7371493571       22.4160570179
  N        11.7813227044        7.4046756873       22.5632222412
  O        12.5766807853        5.6810866485       21.2444445163
  S        10.5440717915        9.5619869847       23.6149193617
  C        11.4597734882        6.5288820014       23.6566704978
  H        11.1386879348        5.5560861154       23.2779596576
  H        10.7031814095        6.9281316496       24.2833368145
  C        12.7667123584        6.0913623780       24.3645185213
  H        13.2244620501        5.2307681994       23.8247396818
  H        12.5066211138        5.5711921479       25.2710054987
  H        13.5285069698        6.8717367836       24.5355522395
