352
 i =    45700, time =    45700.000, E =        24.8255514964
  H        10.4111849406        7.9696182875       32.9488383243
  C        10.9245172226        7.1761765487       32.3970827937
  H        11.8680974554        7.6508569789       32.0616956086
  C         9.9838491984        6.6079356226       31.3354996038
  C        11.2076733242        6.0304035097       33.3318764495
  C        10.8082246137        6.2964124585       30.0762709656
  H         9.4993739939        5.7097639020       31.6409980340
  H         9.2301831999        7.2711434327       31.1057539444
  H        11.8977848085        6.3384424355       34.1214692485
  H        10.2420762771        5.5782904232       33.7569097372
  H        11.5837038520        5.1198306053       32.7672553785
  C        10.0108572819        5.6175405584       28.9885690312
  H        11.7063274167        5.6491181526       30.1620479743
  H        11.0754698467        7.2530299594       29.6615794755
  C        10.4582306151        5.9152855322       27.5381068541
  H        10.0553158392        4.5856776764       29.1835551515
  H         8.9783359594        5.9206200320       29.1183139689
  C         9.5240758489        5.3613846473       26.4703717628
  H        11.4529446544        5.4697885661       27.5039850335
  H        10.5486394541        6.9030821436       27.4633953214
  C         8.3405599642        6.2317302877       26.1494909044
  H        10.1075900449        5.2160566626       25.5475947118
  H         9.2660385282        4.4362805830       26.7846498169
  C         7.1236493569        5.3847449605       25.6458202170
  H         8.0787432233        6.6758835779       27.0508247690
  H         8.5902688727        7.0341306694       25.4238322861
  C         6.8829568589        4.0542187863       26.3503852039
  C         7.5126283394        4.6663004525       24.4198811942
  C         5.8355300664        6.2177238166       25.4142495188
  C         7.1598660602        2.9642735294       25.5446858402
  C         6.5004407009        3.7537131074       27.6723347921
  C         7.5913462214        3.3196396253       24.2742874784
  C         7.8715207759        5.3657354545       23.1990994082
  H         5.9536829650        6.8726575484       24.5848863626
  H         5.6222659470        6.8208882508       26.3331417764
  C         4.6325027255        5.4165543155       25.0172955337
  S         6.8009743093        1.4576639499       26.3667510315
  C         6.3164034535        2.3937210452       27.8292907441
  H         6.2576938183        4.6240218421       28.2837625772
  C         8.0121331232        2.7423137148       23.1456599077
  H         7.8801573080        6.4256238909       23.2933783902
  C         8.4177691826        4.7364328306       22.1384872005
  H         4.6976488512        4.8360499509       24.0631932344
  H         4.3987735460        4.6761076904       25.7888612260
  C         3.3814149496        6.2825786449       24.9254681154
  C         5.8909673666        1.7272208363       29.0174024431
  C         8.4963970415        3.4240494739       22.0602669649
  H         8.0927392851        1.6845730100       23.1440783039
  C         8.9109452087        5.0493506404       20.9602008521
  H         2.6607027733        5.8043010261       24.2862132549
  H         3.5056373580        7.2043885808       24.3789702283
  C         2.7502359648        6.4791709315       26.3291255335
  C         5.7707276537        0.2963195423       29.1588960416
  C         5.4652622897        2.6162511549       30.1504136829
  C         8.9109293107        2.6956780230       20.8333934613
  C         9.1963587841        3.9783089180       20.1346902365
  S         9.1271461039        6.5253084347       20.1638454482
  H         1.9766838163        7.1550127458       26.2150713960
  H         3.4476702562        6.9247342669       27.1162594909
  C         2.0847940086        5.2448876625       26.7350004339
  N         5.9730902801       -0.7254975413       28.1930296541
  C         5.5150106495       -0.2869548327       30.3946200498
  C         5.0891788936        2.0005946528       31.3384431658
  H         5.5294550853        3.6943309593       30.1712180043
  C         7.6651789937        1.8694288831       20.3616589777
  C        10.1965353838        1.8612657387       20.8344975726
  C         9.6630177369        4.3572506271       18.8318913030
  C         9.4770652754        5.6795790946       18.6301615355
  H         1.4155885445        4.9100857033       25.9161811431
  H         2.8742743873        4.4222200481       27.0283111120
  C         1.1645502861        5.4423356193       27.9323226920
  S         5.6916171789       -2.1936743242       28.9079218971
  N         5.4670528806       -1.6926430654       30.4123936048
  C         5.1118928994        0.4885437891       31.5106855197
  H         4.7925817548        2.6261625681       32.1466453526
  H         7.1558450043        1.2929907601       21.1138829903
  H         8.0292427291        1.2145993109       19.5605387917
  C         6.5224778122        2.6877788261       19.7550533646
  H        10.4611682987        1.4719285636       19.8114510541
  H        10.1399590270        0.9846928544       21.4900545222
  C        11.4837183934        2.6269802203       21.2905233351
  H         9.8323504717        3.6849835893       18.0687345460
  C         9.7930652634        6.5139366360       17.3922809559
  H         0.5053827276        4.6442379829       28.0749269859
  H         0.4753038649        6.2510415925       27.7395905834
  C         1.8678346945        5.6425332949       29.2583736279
  C         4.7635353638       -0.1518572227       32.7354289246
  H         6.8703640098        3.3055879423       18.9058606563
  H         6.1783002937        3.2782908779       20.5659225965
  C         5.4977580995        1.7702237703       19.1570076567
  H        11.2802537686        2.8801092585       22.3329244199
  H        11.6836701699        3.5613572885       20.8000940054
  C        12.7031330901        1.7046679814       21.3192014884
  C         9.8533120396        7.9101095150       17.2307196900
  C        10.1309137844        5.7318502081       16.1681354961
  H         2.3314717821        4.7575388761       29.6208645695
  H         2.7109938438        6.3389115841       29.1394187501
  C         0.8453162266        6.0442155483       30.3695536775
  H         4.7785250113       -1.2314975856       32.6433033359
  C         4.4911503328        0.2972738071       33.9939928260
  H         4.9800014499        1.1051031078       19.8680045442
  H         6.0546633719        1.2449212219       18.3687714410
  C         4.3222636520        2.5759622082       18.5692198453
  H        12.8082815758        1.3910799487       22.3659388503
  H        12.6265171123        0.8481045361       20.6071534219
  C        14.0240940746        2.4597744959       21.0583803123
  N         9.6903636402        8.8234592200       18.3091890698
  C        10.1933415685        8.5729478116       16.0375350776
  C        10.4996005879        6.3557478608       14.9776488728
  H        10.0195768862        4.6068003168       16.1321051095
  H         0.4106074668        5.1155885878       30.8446876655
  H         1.3759939642        6.6510485415       31.2125605979
  H         0.0332106041        6.6789547980       29.8925179814
  S         4.2598026057        1.8880764725       34.5523128370
  C         4.3972536983       -0.7354735971       35.0445988748
  H         4.1590904446        3.4934790539       19.2234210441
  H         4.4965893707        2.8647690200       17.4929848562
  C         3.0182418423        1.7917509474       18.6805820963
  H        13.8726851058        3.2456594295       20.3756568519
  H        14.7031365950        1.7406427382       20.5481474902
  C        14.7527268617        3.0123041180       22.2163523440
  S         9.6701135563       10.3602698157       17.6330309287
  N        10.2142281386       10.0002091298       16.1587152827
  C        10.4994269992        7.8406596155       14.8401230081
  H        10.5810801993        5.7228762732       14.1575132402
  C         4.1638638418        1.2609452869       36.1514308676
  N         4.1022338319       -0.1514531233       36.1998923495
  O         4.2750887179       -1.9156267386       34.7463151322
  H         2.3528563226        2.6285660063       18.6074893867
  H         2.7475964750        1.4107874430       19.6352884353
  C         2.7425952885        0.8107353678       17.5012714009
  H        15.7059076033        3.3620257989       21.8503433502
  H        14.4105774915        3.9690633015       22.6491068776
  C        15.2138506775        1.9540371902       23.2680538075
  C        10.8779545157        8.5865567645       13.6483995526
  S         3.7670935972        2.1322012932       37.5973433342
  C         4.0123735301       -0.9450193863       37.4434474907
  H         2.2817474106        1.4772367477       16.7949009842
  H         3.6635233082        0.4383595976       17.0055315907
  C         1.8205381775       -0.2834622169       17.9574296280
  H        15.2388850811        0.9194629272       22.8111160015
  H        14.4494323990        1.9918962396       24.0334428594
  C        16.6264195424        2.2461749052       23.8284627203
  H        10.5345953069        9.6515013333       13.7594491236
  C        11.4477464055        8.2467514798       12.4263338918
  H         3.3468379003       -0.5462583330       38.2189300132
  H         3.6335768821       -1.9240425375       37.1950839165
  C         5.4371178099       -1.1364065902       37.9783775512
  H         1.4201004980       -0.8407345679       17.0646518069
  H         0.8791548068        0.0035462309       18.3419061728
  C         2.3488056234       -1.3388737476       18.9904138924
  H        16.7494644043        3.2775073989       24.0755794421
  H        16.6960943656        1.6711027811       24.7669960671
  C        17.6613706244        1.9638828068       22.7701515932
  S        12.0223485482        6.6589297102       11.9568157566
  C        11.5103917697        9.2162650279       11.2805144577
  H         5.5224557954       -1.2023553425       39.0214988706
  H         5.7981998236       -2.0656484068       37.5048211656
  H         6.2511995988       -0.4048518302       37.6501260212
  H         2.8243362139       -0.8868506576       19.9243001954
  H         3.1231079028       -2.0204415807       18.6723017680
  H         1.4071820198       -1.8623129609       19.1459682802
  H        17.3371162797        1.2603695486       22.0055007116
  H        18.5613089271        1.5913916133       23.3418075004
  H        17.9812352167        2.8898719807       22.3069580378
  C        12.3006872947        7.3840645465       10.3059741699
  N        11.9764512641        8.6539144702       10.1657431712
  O        11.0050641843       10.3526605079       11.3582279512
  S        12.8419916653        6.4223490429        8.9619576142
  C        11.9885167590        9.3411703566        8.8572188131
  H        12.2539937079       10.3531426635        9.0473307236
  H        12.7240955412        8.9712808496        8.0999080300
  C        10.6161549344        9.3607984178        8.1856547450
  H         9.9253233812       10.1646870631        8.6139176716
  H        10.7641491026        9.7135216955        7.1084715052
  H        10.0207902595        8.4339824732        8.3117722925
  H        20.9637838502       11.3789503613        3.4476939440
  C        21.4954070880       10.4174633792        3.4224712082
  H        20.8618931205        9.5337822287        3.4009281600
  C        22.4056207151       10.4457872770        4.6264861233
  C        22.2887226510       10.3515926966        2.1142416911
  C        21.7372769480       10.7659817235        5.9053380123
  H        23.0258826260        9.5013415671        4.7160084705
  H        23.0608890728       11.2877481577        4.4548375432
  H        23.0077674754        9.5823151141        2.1625852644
  H        22.7567514005       11.1842013080        1.5950355298
  H        21.4532537218       10.1397703737        1.4629644667
  C        20.9084042743        9.5895753350        6.4953132377
  H        22.3633422233       11.3324110583        6.6280279109
  H        20.9940098098       11.5590500380        5.7400082357
  C        20.4398528866        9.7686668116        7.9341794484
  H        21.4612709808        8.7222504649        6.3642077189
  H        20.0029906628        9.4918249021        5.9472073754
  C        19.1228830985       10.5632934147        7.9214871429
  H        21.2080302970       10.1574855533        8.5704867713
  H        20.3056794874        8.8074374018        8.3348520558
  C        17.8564242020        9.8552661602        7.5514203409
  H        19.2457179384       11.0452289003        8.8927895458
  H        19.1706366303       11.3517819651        7.1962979359
  C        16.6182897630       10.6557404541        7.1166145736
  H        17.6270799855        9.1615525570        8.2825057327
  H        17.9825840825        9.3216641238        6.6018374281
  C        16.9709894091       11.8909260239        6.4055637333
  C        16.1485728003       11.3700101220        8.3293538245
  C        15.6563715140        9.7936282408        6.2644068794
  C        16.7148672855       13.0325061131        7.1414054739
  C        17.5060875072       12.2585495032        5.1121220987
  C        16.2223075627       12.6777776205        8.4072343109
  C        15.6896793032       10.7481185285        9.4966463085
  H        16.0609771622        9.4363756040        5.3272103258
  H        15.4866263159        8.9957349166        6.9057164635
  C        14.3666537454       10.5344393777        5.9823940859
  S        17.0055728796       14.5105242353        6.2899325058
  C        17.4938957282       13.6551186652        4.9354355771
  H        17.8214081572       11.4856010639        4.4248513929
  C        15.8711791638       13.2646070239        9.5852396912
  H        15.6200412311        9.6532985563        9.4779369831
  C        15.2823357663       11.3443806310       10.6826640468
  H        14.5916156606       11.4848331980        5.4017722075
  H        13.9000026372       10.8406443198        6.9047888026
  C        13.2107323526        9.7113085619        5.2436056659
  C        17.7958898755       14.3756543881        3.6477153020
  C        15.4436176262       12.6605638655       10.7942404689
  H        16.0184232404       14.3184901585        9.7285814653
  C        14.8831223351       10.9569864141       11.8829145889
  H        12.2735226088       10.2603852591        5.4831921691
  H        13.1914195878        8.7424411563        5.6778240295
  C        13.6425527694        9.6461555916        3.7277543168
  C        17.7709112827       15.7380293352        3.3875896953
  C        18.1634254488       13.6022208182        2.4669754943
  C        15.0255058619       13.4333807035       12.0335329117
  C        14.6867253225       12.1208139669       12.7239180295
  S        14.6080100662        9.5026224042       12.6549349046
  H        14.1776513284        8.7387950397        3.4933847207
  H        14.3466376284       10.4797137153        3.5672584882
  C        12.2908717433        9.6908411778        2.9843921979
  N        17.6924291418       16.6874291276        4.4153569257
  C        17.9737643179       16.3087207390        2.1499771970
  C        18.3833100573       14.1527215894        1.2125351490
  H        18.4086052419       12.5335034810        2.6847205286
  C        13.8133845649       14.4246739669       11.8823733937
  C        16.2704739528       14.1319020952       12.7343371298
  C        14.2231208365       11.6957424788       14.0013405695
  C        14.2307982118       10.3523029620       14.1553010071
  H        11.5337677530        9.0779862394        3.5855003360
  H        12.0087190982       10.7150613599        2.7928398175
  C        12.2113550790        9.1653414508        1.6008807443
  S        17.6321455157       18.1737285400        3.7348709172
  N        17.8202034191       17.7026373636        2.1885899480
  C        18.2264328761       15.5842593712        0.9767411613
  H        18.6899499394       13.5102246027        0.4088789487
  H        14.1547297246       15.0619927076       11.0607456411
  H        13.6462665358       15.0930628769       12.7450808979
  C        12.5510070657       13.6412719702       11.5901288252
  H        16.9308350283       14.5228211277       11.9452179455
  H        15.9666262574       14.9140093652       13.4059531053
  C        17.2878687831       13.2230568034       13.4482854517
  H        14.1011832051       12.4439015667       14.7648087453
  C        13.9028854733        9.7632344273       15.4950574107
  H        11.2017663704        9.1680531331        1.2509364174
  H        12.5638570838        8.1678180553        1.5912737650
  C        12.9961082976        9.9831970376        0.5880037016
  C        18.3955148535       16.2576543001       -0.2150390997
  H        12.7169532051       13.0301949467       10.5779350309
  H        12.3230121000       12.9978149801       12.4046293302
  C        11.2918433609       14.6086267223       11.4753567539
  H        17.4543962264       12.4875205901       12.6389454659
  H        16.9112963914       12.7341845314       14.3150413408
  C        18.4856895836       14.1183317491       13.8598564068
  C        13.6879212995        8.3759895605       15.7076014532
  C        13.7187432714       10.5148322209       16.7950688255
  H        13.0595978492       11.0300149586        0.9106883906
  H        13.9640978240        9.5472256024        0.6765920128
  C        12.4338438368        9.7743328877       -0.8569004545
  H        18.4708065843       17.3573502938       -0.1885034444
  C        18.6448816326       15.8037587564       -1.4866273410
  H        11.5173582090       15.4457785929       10.7400951674
  H        11.1540643095       15.1581445136       12.3727078228
  C         9.9742015511       13.8568078588       11.1864045086
  H        18.8981994840       14.3945611097       12.8944629545
  H        18.2272261623       14.9189373628       14.4959923782
  C        19.6080980681       13.2696575860       14.5162598241
  N        13.9010848691        7.3445173671       14.7340635148
  C        13.5485909101        7.8416671549       17.0072720483
  C        13.3634771154       10.0358193856       18.0530209851
  H        13.8405840357       11.6137990173       16.7182846780
  H        11.7206978655       10.5170567162       -1.2362535374
  H        11.8622317466        8.8792334816       -1.0095546642
  H        13.1458223958        9.6726844098       -1.6130288354
  S        19.0719851706       14.2539866506       -2.0229615364
  C        18.6736385422       16.8378237399       -2.5688254742
  H        10.1992986752       12.7940289863       11.1357314794
  H         9.2926687801       13.9814968662       12.0656256412
  C         9.3723782976       14.3561550118        9.9028890806
  H        19.6692991115       12.3135007223       13.9925603574
  H        19.3986149677       13.0238369879       15.5464522373
  C        20.9890627300       13.8625197608       14.2357790525
  S        13.7876518229        5.8958738287       15.4715552095
  N        13.5579290734        6.4165295114       17.0175756166
  C        13.2031371145        8.5962446343       18.1853908917
  H        13.2324519184       10.6940148749       18.9109675382
  C        19.2375148307       14.9515702944       -3.6685245916
  N        19.1094964452       16.2815708312       -3.7237302183
  O        18.3724615230       18.0089110624       -2.3512931686
  H         8.7641796308       15.2704332393       10.1135812693
  H        10.1771665926       14.6909575227        9.1786166843
  C         8.5627954179       13.3351560154        9.2128943152
  H        21.7496362199       13.1334563665       14.4693416839
  H        21.1519184176       14.0263589968       13.2284422199
  C        21.1739267686       15.1481689152       15.1643391678
  C        12.8879575388        7.9089185938       19.3856901204
  S        19.8620136917       14.0058815163       -5.0281045948
  C        19.0168746037       17.0361373367       -4.9496129549
  H         9.1279038336       12.9304430939        8.3721604953
  H         8.2807036071       12.4588339780        9.8930911981
  C         7.3240627924       13.9522863240        8.6147774936
  H        21.9310357643       15.0731331452       15.8832755740
  H        20.2773838493       15.3585027822       15.7183683578
  C        21.6427161318       16.3917615854       14.3492586916
  H        13.3462031213        6.9333688999       19.4357507671
  C        12.3225311785        8.3057512782       20.5647075395
  H        19.6638981089       16.6656755569       -5.6914105226
  H        19.4852771579       18.0349680063       -4.7647563880
  C        17.5692968546       17.0795966869       -5.4514768107
  H         7.0536201012       13.2156873872        7.8446108321
  H         7.6966734799       14.8926443747        8.1517876558
  C         6.1308574262       14.1678145625        9.5654804408
  H        22.5649338853       16.1997963395       13.8205052098
  H        21.0468189075       16.5082866954       13.4839183369
  C        21.7802284061       17.6491195009       15.1454103301
  S        11.6513487037        9.8879580400       20.8869653053
  C        12.1611245458        7.3433630028       21.6861067658
  H        17.2757198217       16.0868804273       -5.6986322925
  H        17.5500111483       17.6917771729       -6.3568286813
  H        16.8224916219       17.4710398118       -4.7493598734
  H         5.8252560253       13.1869197780        9.8806901126
  H         6.5050026678       14.7944312815       10.3828391187
  H         5.2796477504       14.7717013691        9.1205446871
  H        20.8679049366       17.7273264716       15.7187265875
  H        22.6140475011       17.5412530936       15.7855209334
  H        21.9843619449       18.5686688009       14.5969530227
  C        11.0319991313        9.2081180050       22.3564856077
  N        11.4287147138        7.9311234482       22.6361730409
  O        12.5917528568        6.2650409972       21.7251542629
  S         9.9641601637       10.0588700439       23.4395077636
  C        11.1889070641        7.2240220757       23.9427384620
  H        11.0814776316        6.1700882714       23.7133174267
  H        10.4019415960        7.5802646820       24.5743002699
  C        12.4063295743        7.4307397282       24.8296373220
  H        12.2223374977        8.2231953116       25.5307625648
  H        13.3028364701        7.7210063046       24.3040866136
  H        12.7070302050        6.5747655312       25.2787657963
