352
 i =    71100, time =    71100.000, E =        24.6678276851
  H        12.8270692561        5.0173030478       32.1693186363
  C        11.8062714125        5.2908628152       32.2515862868
  H        11.2489666291        4.5398798011       31.7692579212
  C        11.5597935972        6.6421716687       31.5222863440
  C        11.3226453931        5.4262673534       33.7325867496
  C        11.7551434772        6.2257785979       30.0338262601
  H        10.5730254580        7.1286383248       31.7452303957
  H        12.2889978147        7.3661836341       31.9142363590
  H        10.6840905633        4.5866225112       33.9636961841
  H        12.1720900001        5.4743665962       34.4856660059
  H        10.8488879015        6.4047943113       33.9497069348
  C        10.4464777702        6.3034840123       29.2274957672
  H        12.2175009757        5.1743480088       29.9778229179
  H        12.4194403176        6.9349609144       29.5558667852
  C        10.7761173041        6.2595583554       27.7565261779
  H         9.7595950988        5.5055543652       29.4873699689
  H         9.9849692899        7.3118451194       29.2614638559
  C         9.9756041302        5.3125594067       26.8941182148
  H        11.8752639251        6.2496980081       27.7937646470
  H        10.8510916051        7.2425187284       27.2079543967
  C         8.7098287111        6.0426218241       26.4152401218
  H        10.5464851250        5.0662663361       25.9961758181
  H         9.7815846284        4.3745867777       27.5057269493
  C         7.7300726092        5.1544054965       25.5840809513
  H         8.2465433611        6.3252046039       27.3679543366
  H         9.0072352845        6.9061915229       25.7241541127
  C         7.4388568453        3.7802405656       26.2403583901
  C         8.2728576501        4.4180117664       24.4054334080
  C         6.4139970812        5.8704890075       25.1246949707
  C         7.7560978758        2.6622842812       25.4611629356
  C         6.8955218557        3.3899509866       27.4720096601
  C         8.1630335797        3.0686661257       24.2036548256
  C         8.6265764493        5.1588242316       23.2525489583
  H         5.8308087287        5.3095523229       24.4391321958
  H         6.7408517650        6.8070578759       24.6285274565
  C         5.3860849397        6.0925587523       26.2943243617
  S         7.2636235741        1.1333888010       26.1946659047
  C         6.7372991269        2.0171797569       27.6123195643
  H         6.7677836828        4.1160811428       28.2543777905
  C         8.4904383537        2.5085077940       22.9956797070
  H         8.6540754527        6.2391461755       23.3463603686
  C         8.8792194444        4.6532605962       22.0417848557
  H         5.3625475038        5.2364723589       26.9510427589
  H         5.6747257175        7.0000425145       26.8708418921
  C         3.9118022417        6.1361421449       25.8240220974
  C         6.1258667449        1.3604064243       28.8773394111
  C         8.9109010703        3.2755250464       21.8803140567
  H         8.4512324213        1.4659565199       22.9923973140
  C         9.1954303024        5.0935128302       20.7706399701
  H         3.7397962412        5.3869514547       25.0332690334
  H         3.8336348145        7.0803991585       25.2455940310
  C         2.8634033180        6.1455474012       26.9267463265
  C         6.2576919212        0.0187944334       29.2505758361
  C         5.5102895535        2.2551458596       29.9365042948
  C         9.1535524141        2.6584964948       20.5017030945
  C         9.3787649510        4.0262302722       19.8853072897
  S         9.5494205229        6.6049006611       20.0899349825
  H         2.0124157013        6.7840511889       26.5517983901
  H         3.3743945557        6.5880432208       27.7571889856
  C         2.2565237113        4.8420976436       27.4156688291
  N         6.6122691828       -1.0084798703       28.3477459944
  C         5.9205565855       -0.4831986171       30.4812863593
  C         5.1181854183        1.7359617009       31.2052379571
  H         5.1762109626        3.2938095984       29.7732624771
  C         7.8368674085        2.0144420686       19.9965794891
  C        10.4853585082        1.8805608313       20.4807208119
  C         9.7350230604        4.4461683618       18.5851125348
  C         9.7849025643        5.8251500273       18.5398465080
  H         1.6266194973        4.4724144519       26.6615353574
  H         3.0697277867        4.2066815062       27.5843495273
  C         1.4762025392        4.9444655543       28.6347487541
  S         6.5125206592       -2.4534181856       29.0849105874
  N         5.8765191007       -1.8923972706       30.5046030334
  C         5.4444019957        0.3195686390       31.5401461229
  H         4.6246598841        2.4385235025       31.8571851246
  H         7.4895194734        1.2527383229       20.7445909743
  H         8.0741405936        1.3364950778       19.1689638426
  C         6.6291694856        2.9304191751       19.7598092725
  H        10.4626709488        1.4732689143       19.4777421353
  H        10.4187686541        1.0278086536       21.2135659505
  C        11.6697969465        2.7124493824       20.7184222694
  H         9.8841195186        3.6771142319       17.8495996629
  C        10.1597644966        6.6438702827       17.3049342256
  H         0.7719430669        4.1555326135       28.8648542255
  H         0.9146109612        5.8523049999       28.6351002827
  C         2.3653659397        5.1547469945       29.8796343290
  C         5.1314476084       -0.2734550283       32.8150414849
  H         6.9176135588        3.4092641907       18.8685727802
  H         6.7027361952        3.7080694681       20.5022102604
  C         5.2840071028        2.2437661595       19.5549839807
  H        11.4604511646        3.2188079943       21.6767222111
  H        11.9073582834        3.4300111616       19.8822581950
  C        12.8605808605        1.8441590068       21.0847199634
  C        10.2025856220        8.0003969795       17.1476023044
  C        10.4095673479        5.9295058185       16.0506004745
  H         2.9356855397        4.1489190107       30.0044232818
  H         2.9978492245        6.0438084277       29.7337439256
  C         1.4777183283        5.5123141158       31.0810750799
  H         5.3508343609       -1.3073238026       32.8743442621
  C         4.8151421575        0.1939421064       34.0327007720
  H         4.5573455294        3.0386749615       19.4172560558
  H         4.9801626183        1.8030861281       20.5065438388
  C         5.0675703498        1.3508268388       18.3350994145
  H        12.5128257211        1.2366717963       21.9088183278
  H        13.1766826724        1.1791431616       20.3570722331
  C        14.0714403485        2.7334478195       21.5446402103
  N         9.8807438225        8.9640271593       18.1789150743
  C        10.4996924890        8.7280680683       15.9667696732
  C        10.8397866382        6.5585525190       14.8773803314
  H        10.3863040703        4.8837811212       16.1405472588
  H         0.5929942512        4.8007856675       31.2742782059
  H         2.0882442863        5.4700440988       31.9200079492
  H         1.1261688922        6.5217741432       30.9638761017
  S         4.5893323755        1.7928543308       34.5084184730
  C         4.6987670047       -0.8188493196       35.0760060257
  H         5.3138458160        1.9057553310       17.4560341099
  H         5.7375921000        0.4978118222       18.2524670656
  C         3.6459415842        0.7677853082       18.1601670978
  H        13.6606065412        3.4730411967       22.2007924650
  H        14.3491978311        3.3532401852       20.6669085920
  C        15.2310991819        1.9616406558       22.1900696787
  S         9.9706455535       10.4265576345       17.5676249203
  N        10.3777726148       10.1422230132       16.0471034876
  C        10.9429446786        8.0423137046       14.7832172013
  H        11.0518020524        6.0105130895       13.9874894461
  C         4.2167091999        1.1668970261       36.0934950755
  N         4.2536573622       -0.1773444968       36.2086941148
  O         4.9421480933       -2.0237952067       34.9406422648
  H         3.5124699882        0.6947100452       17.0972498914
  H         2.8505605805        1.4883949665       18.2408047242
  C         3.4531501907       -0.6070546862       18.8684060221
  H        14.9276357430        1.0517788315       22.7046440717
  H        15.9299387150        1.6563713653       21.3997947092
  C        15.9465752898        2.8894480073       23.1285822734
  C        11.2319211046        8.7858402547       13.5824618442
  S         3.9100492851        2.0143022297       37.6398800801
  C         4.2020437887       -0.9885805180       37.4338045341
  H         4.3208335192       -0.8641397160       19.4973184783
  H         2.5648430896       -0.6487095297       19.4221435258
  C         3.3675917937       -1.7113581577       17.9155470134
  H        15.3020675462        3.0628201181       23.9763582231
  H        16.1967950608        3.9004476359       22.5959736584
  C        17.2405368426        2.2458852142       23.6596989887
  H        10.8173837039        9.7265934323       13.5184972828
  C        11.7688743118        8.4133179709       12.4224673272
  H         3.5734705739       -0.6501813678       38.2280604791
  H         3.9003634004       -1.9757725676       37.1251357760
  C         5.6091165340       -0.9977341899       38.0724615158
  H         3.4550803194       -2.6411755011       18.4401615177
  H         4.0759647898       -1.6696810005       17.0759684046
  C         2.0261781318       -1.8046907139       17.2525720230
  H        17.5218587932        2.7180590253       24.6405792665
  H        17.2293552734        1.1963951681       24.0333644041
  C        18.3982124747        2.2780641836       22.6590943428
  S        12.3262036609        6.8439519118       11.9599364907
  C        11.6786784121        9.3813664747       11.2665260063
  H         5.9630895425       -1.9883432705       38.2918254916
  H         6.2824785931       -0.4792880428       37.3747813853
  H         5.6368907591       -0.3047183171       38.8805766903
  H         1.3735057375       -2.1910869003       18.0547206433
  H         2.1450362193       -2.4715267864       16.3719122855
  H         1.5990522708       -0.8771414238       16.9725102687
  H        18.7992586035        3.2634801218       22.4790982410
  H        18.1338491872        1.9069949604       21.6877045155
  H        19.2411043326        1.6721727085       23.0088065137
  C        12.4132901388        7.5995107522       10.3410038821
  N        12.1905408923        8.8761529689       10.2106344089
  O        11.2969492091       10.5294479863       11.3900483278
  S        12.9375647037        6.7296526098        8.8746303563
  C        12.4168348615        9.6361324031        9.0170390555
  H        12.5107795178       10.7069842914        9.2309829693
  H        13.3972064211        9.4163329614        8.5954766580
  C        11.2760822754        9.6850482228        8.0667234494
  H        11.2673594723        8.7487092381        7.6436622747
  H        10.2388288950        9.8503434880        8.5550505494
  H        11.4931299570       10.2946141473        7.1410171262
  H        21.8399816703       11.3449088773        2.1906458440
  C        21.9625668520       10.3377735761        2.5633856841
  H        20.9572148242        9.9380548916        2.6305447887
  C        22.7487771325       10.3365420897        3.8967510590
  C        22.8159640692        9.6913416262        1.4445287138
  C        21.7851872100       10.4174813506        5.0590173782
  H        23.4494478601        9.4833176805        3.9449392175
  H        23.4390281375       11.1649031921        3.8181617780
  H        23.1225040354        8.6054991999        1.7510632884
  H        23.7278594071       10.3000281212        1.3916456327
  H        22.3776993865        9.6018216458        0.4881822660
  C        21.2991973338        9.0561006807        5.5973919190
  H        22.4373788345       10.9503247717        5.7445697728
  H        21.0120947977       11.1480486486        4.7200327883
  C        20.2090451997        9.3930373436        6.5614402573
  H        22.0109700247        8.3878123786        6.1695548256
  H        20.9248166128        8.5580196261        4.7426653939
  C        18.8445414270        9.6513181378        6.0271568160
  H        20.5883139683       10.1771436934        7.2295627497
  H        20.1135822393        8.5679375875        7.2125983763
  C        17.8770909824        9.9482876234        7.1288772464
  H        18.7799628569       10.3578327297        5.1915516043
  H        18.4713441559        8.7480509433        5.5281789464
  C        16.6546572019       10.8865758960        6.8270975987
  H        18.3260965651       10.2738653034        8.0730569000
  H        17.4925527901        8.9953977518        7.3337779927
  C        16.9903294364       12.2286550737        6.1623228173
  C        16.2089620942       11.5454455500        8.0796833873
  C        15.4849906835       10.1466578058        6.1294004401
  C        16.9810373889       13.2746885850        7.1077914389
  C        17.4308386176       12.6292007709        4.9177822490
  C        16.3927891323       12.8773991520        8.2911945771
  C        15.7229000236       10.8996977789        9.1796784344
  H        15.7899209215        9.5381136375        5.2747251666
  H        15.0340840081        9.3269549167        6.7870893131
  C        14.3089896902       11.1061912550        5.7752384450
  S        17.4267363160       14.7986791587        6.3547912152
  C        17.7601496896       13.9688570812        4.8528940145
  H        17.5780677568       11.8590356134        4.1595677665
  C        16.1648494806       13.4904988790        9.4639812506
  H        15.6474034277        9.8757521091        9.2094616583
  C        15.5085779419       11.5071897693       10.4078712660
  H        14.5734811418       12.1791362833        5.4348514249
  H        13.8223704420       11.2805931103        6.7117720637
  C        13.3138130809       10.4772014946        4.7935895903
  C        18.2896164329       14.6354173655        3.6103008649
  C        15.6453831378       12.8402985515       10.6039913544
  H        16.3276136035       14.6095197357        9.5613844572
  C        15.1853114415       11.0733488064       11.6241254149
  H        12.5658471450       11.2331042327        4.7236486296
  H        12.9725589421        9.5896752325        5.2600648350
  C        13.8862606762       10.2008998772        3.3559250183
  C        18.3025169289       16.0753493256        3.3393505193
  C        18.6033049315       13.7703558913        2.4546045523
  C        15.3891720422       13.4695272005       11.9513375591
  C        15.1342289982       12.0857739288       12.5678857062
  S        14.9408668294        9.5415221206       12.3023794661
  H        14.5655888979        9.3166854623        3.4758555514
  H        14.4125109513       11.0917033650        3.0799181207
  C        12.8105212936        9.8941256660        2.3122129920
  N        18.0722932642       17.0404199707        4.2888269789
  C        18.6656503046       16.6203288905        2.1118290458
  C        19.0318895735       14.2838853072        1.2658683541
  H        18.8970372319       12.7659622431        2.6510861929
  C        14.1028904813       14.3855125749       11.8460309141
  C        16.5902733436       14.2660885717       12.4516811177
  C        14.7641992325       11.6714418564       13.8382053444
  C        14.6875142386       10.3344018221       13.8579148329
  H        12.0984950933        9.0580486867        2.5806305421
  H        12.2072870488       10.7824009756        2.2844235505
  C        13.3594923222        9.3970854596        0.9544667371
  S        18.2713243258       18.5537610568        3.6268731904
  N        18.6133160315       18.0448115996        2.0906850782
  C        18.9973185917       15.7791054805        1.0212763088
  H        19.4518162809       13.6663659381        0.4510898703
  H        14.1770267171       15.2165783450       11.1230370470
  H        13.8633897164       14.7877086078       12.8461700711
  C        12.8611060514       13.6009468023       11.3696182747
  H        16.7034514420       14.9856194376       11.6328224930
  H        16.2767079188       14.8768516250       13.3458435957
  C        17.8224669792       13.4700946172       12.6817132212
  H        14.6455293823       12.3679626777       14.5806007322
  C        14.2869282033        9.5441651887       15.0613267980
  H        12.6697103843        8.6756740007        0.5860560619
  H        14.3229116875        8.8830405070        1.1400220084
  C        13.5260881187       10.5477057801       -0.0644987467
  C        19.1582953703       16.4921377853       -0.2340582793
  H        13.1779926267       13.0578245323       10.4607450303
  H        12.5140609073       12.8475908785       12.1129990391
  C        11.6665499629       14.4605125731       11.0512384333
  H        18.1377749595       12.8520054067       11.7971312861
  H        17.6170422214       12.7681508025       13.4321595332
  C        18.9614209907       14.4623589529       13.0458380136
  C        14.2048727254        8.1173627659       15.1935249472
  C        13.9845712403       10.3236564475       16.3123988828
  H        13.5895320631       11.5470133627        0.4459081039
  H        14.5314217051       10.5077975605       -0.4763549703
  C        12.6320690100       10.5363902413       -1.2310357079
  H        18.9217146543       17.5541109665       -0.1663108619
  C        19.5152776727       16.0992604731       -1.5077339323
  H        11.8334157966       15.1659091449       10.2616070868
  H        11.4399200196       14.9965491899       11.9986397774
  C        10.6006334782       13.4643097661       10.6945579229
  H        19.2218860115       15.0545781556       12.2069214572
  H        18.4835003247       15.1622960774       13.7336190484
  C        20.0755650020       13.7852785400       13.8469843213
  N        14.4548797703        7.1178664837       14.2492266336
  C        13.8989372571        7.5894851130       16.4010712782
  C        13.6481682753        9.7165273271       17.4678416514
  H        13.9764795622       11.4138263572       16.3414115678
  H        12.8753235424       11.2594770609       -1.9959402219
  H        11.6066845565       10.6048447731       -0.8798601842
  H        12.7557821035        9.6223517019       -1.7708177042
  S        19.9761407038       14.5265401289       -2.0649279336
  C        19.4997941371       17.1640901031       -2.4824534801
  H        10.8800401185       12.7559835350        9.9165734399
  H        10.3180648667       12.8456213885       11.5208785988
  C         9.3523752030       14.1657409964       10.0636285170
  H        20.5279917754       13.1393835751       13.1044953954
  H        19.6990348759       13.1547848907       14.6270342854
  C        21.0561217930       14.7735782704       14.6362724988
  S        14.4983775165        5.6801079182       14.9222318955
  N        13.9402253580        6.2005068193       16.3505287291
  C        13.4999262973        8.2518004508       17.5436620412
  H        13.4216342597       10.3311331744       18.3152766379
  C        20.2636920411       15.2625816341       -3.6879836035
  N        19.9974728159       16.6224827838       -3.6193850389
  O        19.2773281587       18.3423613829       -2.1621249684
  H         8.8258886080       14.6964261545       10.8772382355
  H         9.6932798687       15.0140627145        9.4989458822
  C         8.4247237030       13.2861184902        9.3210262687
  H        20.5549937005       15.0798663714       15.5659869610
  H        21.9888669086       14.1651514404       14.8884555995
  C        21.4320742769       15.9772829158       13.8297337558
  C        13.2073399833        7.5470028008       18.7891492129
  S        20.7531393136       14.4600036444       -5.1826851257
  C        20.0727533140       17.4795451772       -4.7881688334
  H         8.9018781440       12.7616103159        8.5386708967
  H         8.0785204741       12.5375539518       10.0842613232
  C         7.1912755001       14.0403095987        8.7961571161
  H        20.5346269633       16.4560207456       13.3780463814
  H        21.8400024070       15.5306121402       12.9468480355
  C        22.4538365206       16.8495300847       14.4809527034
  H        13.2962512400        6.4641719631       18.8061982260
  C        12.8399291636        7.9363891762       20.1077861247
  H        20.7762016885       17.1595028224       -5.4584377016
  H        20.4477439610       18.4089186076       -4.5371228815
  C        18.7669315421       17.5473165296       -5.4635449312
  H         6.8944788440       13.5957432870        7.8169221460
  H         7.5870948518       15.0403419945        8.4750044817
  C         6.0263074571       14.1366022126        9.7198855248
  H        23.2942544799       16.2174805779       14.7887118430
  H        22.9008324103       17.4626502948       13.7022472804
  C        21.8813098876       17.7246099818       15.6156482052
  S        12.6061066428        9.5406351069       20.6498816312
  C        12.7474736367        6.8790309898       21.1240369349
  H        18.1456666655       18.3889303757       -5.1830483494
  H        18.1569648488       16.7018316347       -5.3654785943
  H        19.0384545651       17.6887824457       -6.5456472815
  H         5.9552229133       13.2595907746       10.3126833132
  H         6.0697121670       14.9164982175       10.4416806751
  H         5.1225075928       14.3693700870        9.1831380976
  H        20.9261160129       17.2970730378       16.0066748928
  H        22.5779243019       17.7152890742       16.4744267942
  H        21.7866635986       18.8007657950       15.2589778970
  C        12.1292661371        8.7372451297       22.1866796480
  N        12.2812435470        7.3746518546       22.2986734450
  O        13.1023521652        5.7298620817       20.9995067949
  S        11.6625919939        9.6103726005       23.6703929325
  C        12.1477130895        6.5335800165       23.4717545300
  H        11.8913592686        5.4985753670       23.2345743610
  H        11.2655724602        6.9354247421       23.9698205563
  C        13.4052234922        6.5715029004       24.2715738419
  H        14.0048113683        5.6426563980       24.1108858971
  H        13.2643015667        6.6132959328       25.2976526495
  H        14.0382607950        7.4991124909       24.0745841059
