352
 i =      300, time =      300.000, E =        52.0201859793
  H        11.6674706054        7.0870742162       32.7231168090
  C        11.5603009163        6.1708173934       32.5369059139
  H        12.4559552776        5.8361424547       32.1268854221
  C        10.4790153314        6.0927753488       31.4225050416
  C        11.0632258389        5.3585937633       33.7808332226
  C        11.1589076207        6.2794505852       29.9980133970
  H        10.0056513311        5.1483203297       31.3889221641
  H         9.8291436641        6.8227422528       31.5933014021
  H        11.6189328288        4.4475166145       33.7192104892
  H        11.1799332917        5.9555143040       34.6437945870
  H        10.0816009814        5.0359157358       33.6685996705
  C        10.0337163125        6.2504345658       28.8835101378
  H        11.6904920988        5.3596584562       29.9136695192
  H        11.7595859613        7.2210949483       29.8876515657
  C        10.5047458689        5.8869779798       27.4590456541
  H         9.4452070358        5.4557117991       29.1315631621
  H         9.5231998399        7.0852307888       28.8708740217
  C         9.4671904152        5.2021785052       26.6153857748
  H        11.2911725415        5.2413580162       27.4781250020
  H        10.8204765803        6.7869864119       26.9984066974
  C         8.0985772267        5.9531443343       26.2875446631
  H         9.9334810380        4.8801678391       25.6755779881
  H         9.1308426261        4.2931855524       27.1897876463
  C         7.1573542795        5.0656123955       25.5526747439
  H         7.6845834985        6.3288576904       27.2489347264
  H         8.3174293115        6.7887798498       25.7487649988
  C         6.8732582020        3.7905994691       26.2769201651
  C         7.6853082495        4.4835067291       24.3056570135
  C         5.8715225523        5.8916079304       25.3610051526
  C         7.1542629495        2.6991804852       25.4902385665
  C         6.3079572690        3.3392839679       27.4710618894
  C         7.7085960107        3.1452278957       24.2158611791
  C         8.1082314180        5.0956847253       23.1056843583
  H         6.0647941162        6.7543138996       24.6909637807
  H         5.7412604418        6.2522146838       26.3583204058
  C         4.6829392187        5.1264477818       24.8361175696
  S         6.6619211681        1.1594745906       26.1868221618
  C         6.1805523957        1.9995029737       27.5619875738
  H         5.9063173729        4.1021505231       28.2340716254
  C         8.1887948636        2.5516110003       23.0700823291
  H         7.9087701097        6.0268709969       23.0826989807
  C         8.5734259395        4.4642964311       22.0031697388
  H         4.8370013595        4.6980717810       23.8250828505
  H         4.3889467725        4.1298094467       25.4315094115
  C         3.4078595524        5.9850046528       24.7811863887
  C         5.7688223069        1.3329426524       28.8829011236
  C         8.6356722857        3.1420761870       21.9119598664
  H         8.3022130542        1.5811453599       23.0851424749
  C         9.0414177263        4.9581857038       20.7601435169
  H         2.7515199725        5.6273802077       24.0336439234
  H         3.5960754667        7.0109491387       24.3395820893
  C         2.7570031195        5.9349715874       26.2026633410
  C         5.7862952550       -0.0209092310       29.1813595005
  C         5.2118728521        2.1779591516       29.9809374871
  C         9.1135876058        2.5939694272       20.6109203264
  C         9.4277160317        3.8954299350       19.9943012853
  S         9.3113958981        6.4130278576       20.0165313226
  H         2.0633380535        6.7765777517       26.2866077613
  H         3.6300526134        6.0571592469       26.9464115588
  C         2.0059546951        4.6906843312       26.5756392151
  N         6.1606163386       -0.9108310887       28.2401650469
  C         5.5127391597       -0.5285972832       30.4056271641
  C         4.9042185122        1.5916896524       31.2375499575
  H         5.2464423552        3.2633541625       29.7537278531
  C         8.0693274735        1.7186643896       19.8516040486
  C        10.3604089449        1.7017699358       20.7710983188
  C         9.8803206673        4.2876312713       18.7631924105
  C         9.7658490424        5.6220059642       18.6340618469
  H         1.3579983829        4.4690862233       25.7202068808
  H         2.5934434424        3.8248281265       26.9727479027
  C         1.1226936405        4.8973920970       27.8291174759
  S         6.2230437006       -2.3505289132       28.9630045992
  N         5.7623727991       -1.9136287742       30.4373768554
  C         5.1385914319        0.1184365298       31.5364287518
  H         4.6186206249        2.2899848269       31.9159213885
  H         7.7612105893        0.9900268047       20.4579877012
  H         8.5664077307        1.3113078244       19.0827188942
  C         6.8649394576        2.5605185251       19.2797149414
  H        10.6506810858        1.4217157167       19.7947577697
  H        10.1196099912        0.8989783530       21.3767747304
  C        11.6091882629        2.4831401489       21.2517961526
  H        10.2828336866        3.5256366505       17.9642439325
  C        10.0156295208        6.4840427506       17.3614835201
  H         0.7569274581        3.8917822176       28.0463057411
  H         0.3045090767        5.6309707212       27.5427914661
  C         1.9634458782        5.4399832072       29.0088628971
  C         5.0231327027       -0.5701348082       32.7937403795
  H         7.2017277116        2.9378896334       18.3042421013
  H         6.5843665901        3.2512053108       20.0585389673
  C         5.6412229532        1.6786833232       18.8852944019
  H        11.1947698410        2.9456933713       22.1138484475
  H        11.8431771287        3.1745278995       20.5948203108
  C        12.8156022401        1.5972932445       21.5504829177
  C         9.9585153535        7.8772320533       17.1868156634
  C        10.2578741347        5.6227099536       16.1532813657
  H         2.9281109540        5.1537632712       28.9168068734
  H         1.8660475368        6.5637546936       28.9831729743
  C         1.4360652179        5.0098024507       30.3974327957
  H         5.1800548450       -1.6982387628       32.6630744491
  C         4.7729425505       -0.0973906755       34.0598625139
  H         5.2144352484        1.3752408345       19.7415003537
  H         5.9799021840        0.9365093905       18.3255191538
  C         4.6739494521        2.5535383495       18.1105275488
  H        12.4276292560        0.9494454522       22.2727034826
  H        13.1781047602        1.0720350605       20.7238781796
  C        14.0445328665        2.2726767647       22.2371231115
  N         9.7745526276        8.7399637420       18.2414262844
  C        10.3535769444        8.4253642788       16.0114323268
  C        10.5235101182        6.2702018312       14.8665638587
  H        10.2291501626        4.5165103233       16.1658922763
  H         2.3250919651        4.2941918257       30.8808267451
  H         1.1302272133        5.8919153440       31.1075467188
  H         0.5682906881        4.4302524000       30.1089928479
  S         4.4271016549        1.5165562407       34.5262299758
  C         4.6868294379       -1.1554906694       35.1744337162
  H         4.6124961635        3.4978757674       18.4409321184
  H         5.0277531397        2.6029447812       17.1581847099
  C         3.1929257979        2.0543833954       17.9784224589
  H        13.7570514720        2.4161866377       23.2483360637
  H        14.3343994070        3.2841731057       21.9082160428
  C        15.1133517780        1.3186386055       22.3580136034
  S        10.1925051395       10.2244110143       17.6553505979
  N        10.3670945347        9.8344528066       16.0679310928
  C        10.5902189751        7.7160934746       14.8341345216
  H        10.6796694068        5.6924907669       14.1178124697
  C         4.2556408274        0.8606925500       36.1570347603
  N         4.3409704092       -0.5156975837       36.1878613988
  O         4.9834657401       -2.2719113151       35.0213162601
  H         2.7207489248        2.6657407262       17.2581490177
  H         2.5822088091        2.0950242229       18.8790826002
  C         3.0953491924        0.5642533774       17.4029420434
  H        14.7754219305        0.3087766847       22.7245880825
  H        15.5497018327        1.2276141000       21.3772461634
  C        16.0885304269        1.9443928528       23.3807883130
  C        10.9313693714        8.4196423289       13.5355371960
  S         4.0158741899        1.7598647238       37.5879099009
  C         4.0859489817       -1.1166675484       37.4838436539
  H         2.4681933531        0.4809090365       16.5739520485
  H         4.0074248786        0.1828278115       16.9119547834
  C         2.5222660079       -0.4494265399       18.3194232677
  H        15.7729265837        1.5965699365       24.3751230819
  H        16.0569610766        2.9996499498       23.1649056216
  C        17.5573420040        1.5128971190       23.1889189042
  H        10.7828511323        9.4965158298       13.6382358378
  C        11.3825841146        7.9704188702       12.3320433217
  H         3.2591504533       -0.6453682216       37.8743359457
  H         3.9563433360       -2.2076481899       37.3995129512
  C         5.4263340330       -1.0413335798       38.3063323332
  H         1.5873743485       -0.2784860888       18.8072106554
  H         3.1047605071       -0.8688043152       18.9803736325
  C         2.4090069679       -1.7342409264       17.4092964484
  H        18.0768812362        1.6314358512       23.9563015311
  H        17.3564500321        0.5265339402       23.0252952771
  C        18.3085670993        2.1189757720       22.0066594472
  S        11.7304238826        6.3781245208       11.8332001416
  C        11.5166180580        9.0105144808       11.2253328609
  H         5.6841016229       -2.1778852982       38.4576033788
  H         6.2309127883       -0.5262968967       37.6258256584
  H         5.1976095986       -0.4653913149       39.2276989574
  H         1.8801112751       -2.5307187781       17.9427681519
  H         3.4310475010       -2.0873276551       17.2029197335
  H         1.8402735884       -1.4239484780       16.4574378419
  H        18.6630248016        1.4147872337       21.3108068465
  H        19.1948537102        2.5635284137       22.4121419704
  H        17.9282697381        2.8585347269       21.3155898303
  C        12.0964661504        7.0043591254       10.1856196770
  N        11.9831409977        8.3904753256       10.1418728676
  O        11.4826802670       10.1919914351       11.4117695428
  S        12.7465614076        6.2330818508        8.8381468061
  C        12.2490314588        9.1381111056        8.9754904764
  H        12.6658136681       10.0855608575        9.2623083051
  H        13.0152484025        8.7530189863        8.4186836348
  C        11.0483606474        9.4200777952        8.1575745777
  H        10.5856686951       10.3526898741        8.5295012304
  H        11.0492790200        9.6584014953        7.0198803491
  H        10.3363363731        8.6224412773        8.1294990949
  H        20.8466101439       11.1508518593        3.5753724829
  C        21.3890257638       10.3286761181        3.6040177626
  H        20.7480907929        9.5650641913        3.8300983607
  C        22.4528687445       10.5713248766        4.7007984361
  C        21.9750464315       10.1106674983        2.1998410148
  C        21.9752876317       10.8262486348        6.1533568653
  H        23.2969935162        9.8743225115        4.7101669712
  H        23.0434124816       11.4254478474        4.3258935567
  H        21.1968399589        9.9243857717        1.4626378179
  H        22.7032486985        9.1965805161        2.3390707037
  H        22.5833046624       10.9480010056        1.7621075634
  C        21.1054776713        9.6330177091        6.6351123336
  H        22.8136160569       11.0245150194        6.7719663032
  H        21.3344890656       11.7630796570        6.2047844056
  C        20.4936364358        9.6867449125        8.0296434385
  H        21.5993479681        8.8326665403        6.5548067136
  H        20.2257258956        9.5619308616        5.9764560442
  C        19.1262133737       10.5436743464        7.9412138992
  H        21.1976408679       10.2620478020        8.6335984930
  H        20.2251011740        8.6627760670        8.3544587764
  C        17.8715607807        9.8150067990        7.4798116758
  H        19.0919522407       10.9544959232        8.8489467432
  H        19.3875368326       11.3966556471        7.3772527818
  C        16.6894060599       10.7317791377        7.2972983190
  H        17.5585850555        9.0925410069        8.2228588316
  H        18.0814237600        9.1295675730        6.6307937296
  C        17.0898903761       11.9804694542        6.5761394022
  C        16.3000794007       11.3312733935        8.5668966597
  C        15.6123617061        9.9362708956        6.6246804686
  C        16.7788871777       13.0871211258        7.2906121345
  C        17.5308640323       12.4094285862        5.3089538091
  C        16.3557749230       12.6869236206        8.5829099104
  C        15.8559227529       10.8038686681        9.7945317419
  H        15.9566647778        9.3886173609        5.8787067595
  H        15.2771105464        9.2668226029        7.3695951912
  C        14.3526915104       10.8137292928        6.3618216081
  S        17.0900260981       14.5784738000        6.5286609410
  C        17.6024613430       13.7645132660        5.2005088762
  H        17.7331796642       11.6865706943        4.5177498492
  C        15.8920840986       13.3203691369        9.6970047992
  H        15.8703759625        9.8683854109        9.7550232549
  C        15.4169922986       11.4542557531       10.9068988668
  H        14.6414870957       11.8562662737        6.0614626264
  H        13.8114991211       10.9485972408        7.2806331484
  C        13.4419137368       10.2618590753        5.3034541881
  C        18.0328412450       14.6179347800        3.9780764899
  C        15.4604030192       12.7772953542       10.9317661369
  H        15.7904642804       14.3067380126        9.6973815803
  C        14.9816262737       11.0672607836       12.1757039312
  H        12.6965756875       11.0042704229        5.2647336853
  H        12.9649081450        9.3312499279        5.6575649528
  C        13.9619403122       10.2362474913        3.9226265585
  C        17.9790639435       15.9850307110        3.6790936479
  C        18.3845156628       13.7610042188        2.8031757771
  C        15.0548215675       13.4509168949       12.1597398323
  C        14.8071749814       12.1962609382       12.9580687341
  S        14.6899674296        9.6404249944       12.9394681865
  H        14.8887952561        9.5049727899        3.8118134980
  H        14.4846026077       11.2100955928        3.4597850608
  C        13.0053117291        9.8621564859        2.7431361913
  N        17.7889313587       16.8980068948        4.6990220409
  C        18.3015385731       16.4844520770        2.4799828818
  C        18.7084738824       14.3433099175        1.5108075590
  H        18.4535549503       12.6987447643        2.8505440974
  C        13.8073677997       14.4073544010       11.9458386749
  C        16.1040708905       14.2779304612       12.7720009894
  C        14.2415978219       11.7974494761       14.2095127588
  C        14.2554726912       10.4409482005       14.3304964142
  H        12.5752083114        8.9291426537        2.9941705746
  H        12.2510208315       10.6824930751        2.8159124958
  C        13.6033755984        9.8708688917        1.3668010281
  S        17.8599273396       18.3393856552        3.9145831381
  N        18.1888946473       17.9029689296        2.4042240491
  C        18.6297011849       15.7931335958        1.3280636502
  H        18.9236538522       13.6253019135        0.7140603252
  H        14.1265096410       15.1889499085       11.2500206555
  H        13.5685826984       14.7466704122       12.9696361721
  C        12.5721401222       13.6233216718       11.4712128351
  H        16.3668039960       14.9898398447       12.1351627319
  H        15.7577447539       14.6726820544       13.6438800316
  C        17.3299948726       13.5063861256       13.1417064724
  H        13.9251271585       12.5242754984       14.9823476787
  C        13.9944006048        9.6079296401       15.5432263887
  H        14.2627982590        9.0359577499        1.2031541837
  H        14.2555218896       10.7777216108        1.3873562278
  C        12.6040330119        9.9183412292        0.2087035501
  C        18.7800638333       16.4963251679        0.0405770073
  H        12.8267659508       13.0744812479       10.4924332858
  H        12.2422240692       12.7835150545       12.1721355814
  C        11.3343088683       14.3426865721       11.1907826001
  H        17.6974575373       12.9974777066       12.2938620657
  H        17.1244879474       12.9117081372       13.9401825596
  C        18.5577086062       14.3398945359       13.5397021895
  C        14.0296233775        8.1826475296       15.6342985469
  C        13.7347245103       10.4051896049       16.8035570616
  H        12.2898697927        8.8341962937       -0.0322352672
  H        11.5315219907       10.2320759722        0.4970847313
  C        13.1125105933       10.5980028814       -0.9616261956
  H        18.6697824838       17.5330822476        0.1303866753
  C        19.1120595737       16.0957597830       -1.2144322680
  H        11.5807128490       14.9674909896       10.3268522211
  H        11.1520873242       14.8975994147       12.0789890930
  C        10.2053552787       13.3869645428       10.7845410737
  H        18.9207749218       14.9061242124       12.7223537722
  H        18.2539038418       14.8689827032       14.3843909873
  C        19.6287312676       13.4186454796       14.0780031197
  N        14.0594400245        7.3518956089       14.5675705515
  C        13.6060571597        7.5859763654       16.7889855225
  C        13.3450255056        9.6644692989       18.0104373602
  H        13.7498658318       11.4273890031       16.9630283852
  H        12.3617115192       10.9534552763       -1.8560498599
  H        13.9736856364       10.0823553457       -1.5362019861
  H        13.7007489030       11.5288068330       -0.7730199127
  S        19.4923831132       14.5171280645       -1.6956564567
  C        19.1370246653       17.1608760882       -2.3633856331
  H        10.5573299115       12.5635575895       10.1313926934
  H         9.8226969490       12.7486166996       11.6079441872
  C         9.0883533724       14.0784378615       10.0076280358
  H        19.6859817703       12.4960088446       13.5097362664
  H        19.3607591825       13.1758195730       15.0723583181
  C        21.0401262865       14.0026356834       14.2032742481
  S        13.7351744098        5.8392196553       15.1198475559
  N        13.5841745072        6.2124704416       16.6801322294
  C        13.3586615672        8.1719492254       18.0402123761
  H        13.1510531910       10.2013280373       18.8771175766
  C        19.6561210037       15.1421210251       -3.3204894598
  N        19.4415810452       16.5312650718       -3.4188053360
  O        18.9194479520       18.3044973325       -2.1276593474
  H         8.4773740071       14.7034830001       10.5376608659
  H         9.6600917503       14.7373235342        9.3061064131
  C         8.3541311641       12.9962624106        9.1841057558
  H        21.6659014569       13.2763119316       14.7280888286
  H        21.4926299421       14.2894572620       13.1725095028
  C        21.3135406525       15.2700520247       15.0997793199
  C        13.0722257410        7.3882473471       19.2268169397
  S        20.1702451723       14.3238293193       -4.6681709054
  C        19.4326838463       17.1478799131       -4.8124435219
  H         9.0018772154       12.6378628172        8.3501067703
  H         8.0595727493       12.2018892555        9.7899594959
  C         7.1267907895       13.6833207527        8.4892893942
  H        21.9599150396       15.0190821293       15.9696746765
  H        20.2293599716       15.5567039681       15.5194305852
  C        21.9523103101       16.3410576200       14.2954660266
  H        13.0739722795        6.4308730048       18.9390128584
  C        12.6252268975        7.7405009404       20.4705369931
  H        20.2020394894       16.8400237097       -5.3585070129
  H        19.6446523978       18.2077556234       -4.7078080098
  C        18.1480633525       17.0236676539       -5.4676351855
  H         6.9271250275       13.1709539739        7.7193396165
  H         7.5087840733       14.5880149441        8.3276399114
  C         6.0093368721       13.9028555144        9.4884750510
  H        22.8506591698       15.9212837769       13.7967736380
  H        21.2147829156       16.6786827492       13.5399672329
  C        22.3517548959       17.4855297296       15.1521780313
  S        11.9710362640        9.2679539006       21.0687051450
  C        12.6007585541        6.5537876764       21.5212933192
  H        17.8952810813       17.5210988620       -6.4256835250
  H        17.3674017955       17.5538870033       -4.8844774599
  H        17.6227745177       16.0428130705       -5.7315394472
  H         4.9832460619       14.0254204050        9.0860389518
  H         5.8037907509       13.1864673107       10.2676411619
  H         6.0571602445       14.8369377126       10.0326558952
  H        22.6831445580       18.2578042404       14.4162115892
  H        21.6093206962       17.9398011439       15.7559868430
  H        23.1765982567       17.2672162203       15.7401469322
  C        11.6980379336        8.3292917266       22.6428667971
  N        12.0976879096        7.0161325583       22.6048624229
  O        13.0748789497        5.4403312278       21.2908874966
  S        11.0733600672        8.9515702165       24.0758596160
  C        11.9887438524        6.0963338054       23.7562440588
  H        11.9462633379        5.0691925151       23.5877738851
  H        11.1950920941        6.4862107851       24.2336544069
  C        13.2546372023        5.9737783360       24.5659624462
  H        13.1105206155        6.3848441054       25.6921979735
  H        14.1249866621        6.5724571437       24.0364087059
  H        13.6840577401        4.9090242686       24.6769661546
