352
 i =    93800, time =    93800.000, E =        25.1996505066
  H        10.5582253309        6.7771956522       32.2620040698
  C        11.5561857410        6.2539283944       32.3657868634
  H        12.2058932804        7.0711732605       32.6939009279
  C        11.9459202520        5.7886892959       30.9597650763
  C        11.5775645714        5.1423304338       33.4017740393
  C        10.7629053474        5.0159510731       30.2735370300
  H        12.1812261192        6.6378245941       30.3286563185
  H        12.7936713709        5.1649875600       31.0579669110
  H        12.6128286211        4.9194108115       33.5984809103
  H        11.2085955801        5.5039822061       34.3252419232
  H        11.0619265809        4.2810711234       33.0473692221
  C        10.0292077316        5.8940422220       29.2642246208
  H         9.9332667013        4.8866711439       30.9490628096
  H        10.9897162435        4.0074250247       29.9295621193
  C        10.7288295063        5.8122974408       27.8785519693
  H         9.0446312962        5.4095527534       29.2727047580
  H         9.8319935608        6.9343743217       29.6096607970
  C         9.8941026080        5.0731948825       26.7756271429
  H        11.7085883683        5.3493241265       27.8504362447
  H        10.8546124122        6.8135243156       27.4592302616
  C         8.7887749300        5.9703621210       26.4382602473
  H        10.5493270689        4.8745870796       25.9589359710
  H         9.5512936616        4.0705924049       27.1655612825
  C         7.6625002203        5.2810099833       25.6931070467
  H         8.3885914207        6.4028636697       27.3797842980
  H         9.1770258102        6.8072534683       25.9033182371
  C         7.2976999904        3.8617184001       26.2598817999
  C         8.1344558868        4.6357864890       24.4515726183
  C         6.5086967966        6.2638823207       25.2922097462
  C         7.5868706932        2.8007007054       25.4222985949
  C         6.8988452995        3.4418851733       27.5254253424
  C         8.0596373238        3.2756610601       24.2201526491
  C         8.5487154612        5.3711451667       23.3460683114
  H         5.9867133776        5.7090496244       24.4546611284
  H         6.8425967203        7.1020775263       24.8381091400
  C         5.4943361824        6.4452996236       26.4441613190
  S         7.3431032536        1.2549106236       26.1013970903
  C         6.7024995723        2.0664339895       27.5380351055
  H         6.7748934737        4.1009138962       28.3543710916
  C         8.4751272819        2.7154375568       23.0546077643
  H         8.5798333797        6.4289112830       23.2569669504
  C         8.9704649945        4.8229070953       22.1849981151
  H         5.6658707538        5.7139198963       27.2828239433
  H         5.6054352986        7.4737624536       26.7819330499
  C         4.1367956783        6.2910829550       25.7790994616
  C         6.1755962952        1.3132348194       28.7321550261
  C         9.0106854261        3.4792851837       22.0127221780
  H         8.5084313205        1.6679314708       23.0252911124
  C         9.4393212761        5.3115085733       21.0069831649
  H         4.1082243410        5.3952059299       25.2260773176
  H         4.0765035721        7.1722874260       25.0863869679
  C         2.9995898534        6.3470452452       26.7874246071
  C         6.0358986125       -0.0552899425       28.9150323385
  C         5.6604243566        2.1110282288       29.8779764519
  C         9.4972612980        2.8968169425       20.7313519428
  C         9.8210983139        4.2940113313       20.1452710758
  S         9.7339601936        6.9064679852       20.3545130760
  H         2.0367082498        6.3920196167       26.2214559920
  H         2.9694530700        7.2516922832       27.4634683516
  C         2.9548808600        5.0724354237       27.7445073976
  N         6.5524040740       -1.0010769188       27.9080762176
  C         5.7904656016       -0.6493353905       30.1101632398
  C         5.3161612309        1.4995707501       31.0961426160
  H         5.7185937655        3.1465000031       29.8547009343
  C         8.3921380993        2.1067853120       19.9516169475
  C        10.7630865541        2.0052674976       20.9285258209
  C        10.1089698594        4.7350117226       18.8828121210
  C        10.1329349276        6.1069667333       18.7868938349
  H         2.8347159362        4.0745836392       27.1728567358
  H         3.8733311639        5.0239370101       28.3106200719
  C         1.6794316614        5.0439275668       28.6212444517
  S         6.5604408519       -2.4662744702       28.6209105625
  N         5.9397969863       -2.0354676393       30.0773528058
  C         5.3562256769        0.0239281902       31.2032369082
  H         4.9010188576        2.1996016369       31.8358087056
  H         8.2454679671        1.1807271150       20.5785770926
  H         8.8574391143        1.8383318323       19.0319455798
  C         7.1729410752        2.9628762174       19.6064787788
  H        11.0485684549        1.5805379576       19.9561546423
  H        10.5212487978        1.0828719892       21.5287931886
  C        11.9716958086        2.7513092618       21.4911526704
  H        10.3025218111        3.9909887400       18.0943426289
  C        10.3025121602        6.8827162432       17.5106335490
  H         1.3497151651        3.9939830564       28.9452130328
  H         0.8195533881        5.4006533761       27.9800444441
  C         1.9187386221        5.9049577573       29.8362024534
  C         5.1895056979       -0.7137382060       32.4108916944
  H         7.3819474893        3.6202221476       18.7567049223
  H         6.9120781488        3.5448533590       20.5442786678
  C         6.0009058315        2.0749648862       19.2488317294
  H        11.7930538618        2.9707128679       22.5457153911
  H        12.3557499294        3.6779341223       20.9949100656
  C        13.2262150822        1.7743737570       21.5013498709
  C        10.3364310644        8.2801076126       17.2868572272
  C        10.5350653037        6.0743839663       16.3018852025
  H         2.5142534072        6.7549311506       29.5573138815
  H         0.9141569944        6.1838956031       30.2080572691
  C         2.7318697696        5.1554253115       30.8834614664
  H         5.2364906245       -1.7746233280       32.3328736362
  C         4.8942521518       -0.2421532870       33.6940691002
  H         5.4357055058        1.7194603617       20.1583260775
  H         6.4084823289        1.1793368670       18.8380306061
  C         5.0714456394        2.7086666945       18.2306797971
  H        13.0511858108        0.8498590454       22.1549369055
  H        13.4323688259        1.4483372893       20.4790994573
  C        14.4543144237        2.4837686904       21.9054958627
  N         9.9879617551        9.2015684038       18.3202931362
  C        10.5408071589        8.8452869905       16.0406314543
  C        10.7936062304        6.6757109295       15.0460670612
  H        10.5172098617        5.0376543133       16.3721815435
  H         2.0919703260        4.9097003743       31.7249321231
  H         3.2190608964        4.2975155507       30.4325847146
  H         3.5749005507        5.8230112042       31.1237489485
  S         4.5911145994        1.2255905543       34.3317989337
  C         4.8526256532       -1.3333664571       34.7337383410
  H         4.8099768108        3.7293063564       18.5330157623
  H         5.5690237861        2.8533858433       17.2365771218
  C         3.7370480524        1.8933497957       18.1539337067
  H        14.1210823584        3.4207336980       22.3612701267
  H        15.1371698434        2.6747199264       21.1183930214
  C        15.1332400376        1.6835818864       22.9760440543
  S        10.0319899475       10.6397473089       17.6200722510
  N        10.3667671049       10.2188166576       16.0733496801
  C        10.7703434906        8.1109818113       14.8582258804
  H        10.9231016071        6.0085681447       14.2041370950
  C         4.2830685198        0.4154276303       35.8797207737
  N         4.5069029317       -0.8971832549       35.9305157701
  O         4.9794532767       -2.5352689412       34.5486314702
  H         3.0465815504        2.5076657109       17.5387347334
  H         3.3284201523        1.9434017877       19.1961538232
  C         3.8351529347        0.5526403183       17.6037351531
  H        14.5591921623        1.4345977755       23.8353559081
  H        15.5011905567        0.7460808763       22.5157881834
  C        16.1539598532        2.7072450481       23.3858636868
  C        10.9418407580        8.8029103812       13.6264774714
  S         4.0322807403        1.3090241262       37.3215033414
  C         4.6406262080       -1.7263672606       37.0769541145
  H         3.9551845579        0.6495011804       16.4835890707
  H         4.7103631083        0.1201280592       18.0067733061
  C         2.6368606551       -0.3086997294       18.0997783039
  H        15.6082186876        3.2328685874       24.1753488459
  H        16.3342976671        3.4826632503       22.7399576733
  C        17.5034024701        2.0914986035       23.9168900286
  H        10.5506639593        9.7632400555       13.6652485266
  C        11.6254108397        8.4702521039       12.4938481057
  H         4.0488008879       -1.4317217129       37.9138910984
  H         4.4024912263       -2.7282703834       36.8374353512
  C         6.0989364205       -1.8164737422       37.5619580399
  H         1.5959298753       -0.0216377783       17.6860201782
  H         2.6712090605       -0.2327083255       19.2007271314
  C         2.9186194594       -1.7784135741       17.7304973532
  H        17.8503957198        2.8025919749       24.6580984668
  H        17.1866986700        1.1663654768       24.4373863480
  C        18.5179559906        1.7920769324       22.8210226814
  S        12.2100981942        6.9144474097       11.9666258366
  C        11.8416762129        9.6210067685       11.5637336684
  H         6.7799762523       -1.9526449442       36.8266909875
  H         6.3965186167       -1.0076614207       38.1399115804
  H         6.2916245093       -2.6374310336       38.2577447866
  H         3.8445408996       -2.1781546371       18.0332075273
  H         2.9024026931       -1.8157336656       16.6236712063
  H         2.1388693888       -2.4839992984       18.1460257137
  H        19.1658608410        1.0777664132       23.2821889284
  H        19.0163324052        2.6855410785       22.5474246033
  H        18.1248791621        1.3399955387       21.8882199947
  C        12.7861446213        7.7978218183       10.5449673157
  N        12.4692660312        9.0784875075       10.4947733923
  O        11.3218095191       10.7806725557       11.6233588064
  S        13.2710431271        7.1141010942        8.9961056501
  C        12.6801151389        9.9856702984        9.2688657459
  H        12.8062977726       11.0675036881        9.6140683554
  H        13.5389478821        9.6849736230        8.6980223843
  C        11.4394254525        9.9743347787        8.4223277153
  H        11.2697347753       10.9323189824        7.9504102532
  H        11.4306332597        9.3665650738        7.4786170458
  H        10.5040170519        9.8089888296        9.0450553984
  H        21.6115690938       11.0320197268        3.2757568407
  C        22.1880424452       10.0892175812        3.2448514791
  H        21.4511427305        9.3928089098        3.2069630214
  C        22.9780771835       10.0350803261        4.5356180284
  C        23.1372361932        9.9844773859        2.0366345845
  C        22.1025413611       10.1424304053        5.7738443244
  H        23.5695780525        9.0650702611        4.5893941223
  H        23.7048101920       10.8758509216        4.5804815432
  H        23.8122834541        9.1351006733        2.1347574461
  H        23.7211990282       10.8571315859        1.9336108026
  H        22.4940897456        9.7891857228        1.1473333659
  C        21.4139982009        8.8099334527        6.0235002069
  H        22.7172081977       10.4451752754        6.6136812842
  H        21.3724181674       10.9421967282        5.7318237989
  C        20.3912091292        9.0482638283        7.0428223801
  H        22.0641519624        7.9504508858        6.3406192606
  H        20.8959344328        8.5622012159        5.1095977383
  C        18.9897306161        9.2653499139        6.4256011484
  H        20.7227806608        9.8909599694        7.5651932042
  H        20.4881266476        8.3315955446        7.8389219409
  C        17.9456752638        9.5123303390        7.5792549695
  H        19.0781917285       10.0237086333        5.7575472057
  H        18.6888691885        8.4689038609        5.8839456847
  C        16.9144109614       10.6451037777        7.2913548180
  H        18.5086765403        9.7730124596        8.4964235149
  H        17.3942574833        8.6145014727        7.8847275000
  C        17.4070847382       11.9990465664        6.5885839621
  C        16.5302668766       11.4816687435        8.4551459725
  C        15.7171654058       10.2005073378        6.3918905767
  C        17.2590207716       13.1591802320        7.3579910458
  C        17.9235997324       12.4514948719        5.2948190427
  C        16.6987054617       12.7937099493        8.5513442465
  C        16.0502038529       10.7663698341        9.6136196710
  H        16.1014605906        9.7739282337        5.5203381221
  H        15.0597843005        9.4817714000        6.9127888028
  C        14.7996850091       11.3250306182        6.0145487695
  S        17.7098113025       14.6973344778        6.6141384247
  C        18.1081184872       13.8141727700        5.1758352044
  H        18.0309728060       11.7426887098        4.5021696193
  C        16.3248347810       13.3751889000        9.7136225164
  H        16.0018321441        9.6731305305        9.5143145116
  C        15.7535098864       11.4379100981       10.7482897034
  H        15.0945722380       12.2878605992        5.5899772853
  H        14.3714801615       11.6253526817        6.9314563893
  C        13.5685962911       10.7848048166        5.2200907365
  C        18.2495407742       14.4464621463        3.8101179467
  C        15.9346248497       12.7706672579       10.8829777565
  H        16.3093070838       14.4498861577        9.7909772591
  C        15.2633942792       11.1158305453       12.0248118934
  H        12.6797331943       11.4250738131        5.2786713726
  H        13.2731710955        9.8058237983        5.6293733554
  C        13.9851237035       10.3920736549        3.7482972648
  C        18.2509558024       15.8438023018        3.6075245938
  C        18.6876135208       13.6696614862        2.5867697251
  C        15.6320763364       13.4935219561       12.1946544867
  C        15.0883101262       12.2383937142       12.8355387130
  S        14.9576007149        9.6796764727       12.7917776231
  H        14.3778710776        9.4048226159        3.8940303201
  H        14.8759719386       10.9913961331        3.5667587840
  C        12.9438794940       10.5737716301        2.6883635451
  N        17.7846252723       16.7732260770        4.5611893450
  C        18.5532712833       16.4583074095        2.4259923449
  C        19.0806320571       14.2725024055        1.4313087699
  H        18.7900388335       12.5578348204        2.6215566518
  C        14.5496744354       14.5492633955       12.1286061625
  C        16.8204211623       14.0510577318       12.9938711759
  C        14.4976909089       11.8538123623       14.0705354458
  C        14.4407878631       10.5102258363       14.2519716640
  H        12.0963081315        9.8993288561        2.9290899447
  H        12.6128515229       11.6048592386        2.8797248384
  C        13.5462021236       10.3965628161        1.3320111318
  S        17.7956241147       18.2667164332        3.9762128830
  N        18.2521603350       17.8138041091        2.4275120973
  C        18.9681472665       15.7814562796        1.2290820903
  H        19.4759463631       13.6231386183        0.6537002500
  H        14.9040610967       15.5116065549       11.7121447340
  H        14.0494506721       14.7570915597       13.1348930909
  C        13.2505442003       14.1839602858       11.3623258512
  H        17.1587674969       15.0696124312       12.6280568475
  H        16.3582662282       14.2946614892       14.0031503284
  C        17.9739389831       13.0806772911       13.1310939832
  H        14.3342143537       12.6022222148       14.8512288024
  C        14.2590571264        9.7833376267       15.5847496507
  H        13.9354062466        9.3973373361        1.3852650669
  H        14.3748928487       11.0541707133        1.1886707930
  C        12.5119762021       10.6433592960        0.2053663922
  C        19.1567548058       16.4891283500        0.0182805872
  H        13.1089706602       14.9119661219       10.5642244173
  H        13.3608384393       13.2402105332       10.8240616653
  C        12.0015300749       14.1776855807       12.1883170588
  H        18.3556065392       12.7303439094       12.2108076108
  H        17.6069687081       12.1348874069       13.5506899224
  C        19.0272036346       13.6436332596       14.1203765070
  C        14.2247825247        8.3468842558       15.7270482967
  C        14.0709893750       10.6557079517       16.8311968437
  H        11.9644228792        9.7305411324        0.1070465153
  H        11.7575188629       11.3937518044        0.4279669488
  C        13.0351415916       10.9419410513       -1.1763810594
  H        19.0207782092       17.5180853128        0.1035149388
  C        19.5283844481       16.1190451206       -1.2054543519
  H        11.9026878302       15.0113743547       12.8257881361
  H        11.9412567393       13.2961990021       12.8159946674
  C        10.8685134038       14.0890248190       11.1353462100
  H        18.6700949501       13.7845924774       15.1496173657
  H        19.7446382910       12.7667456281       14.2108175952
  C        19.7791478563       14.9324340290       13.7275746888
  N        14.3445532081        7.3567961929       14.7309857260
  C        13.9909699388        7.7416398511       16.9468195023
  C        13.8110987798        9.9627206395       17.9896645887
  H        13.9524207471       11.7558964902       16.7738208593
  H        13.3319579531       12.0122973527       -1.2725655992
  H        12.2175299407       10.7275038258       -1.8817200636
  H        13.8262872234       10.2743478586       -1.5196147747
  S        19.8628502634       14.5324838478       -1.7948333340
  C        19.6905320586       17.1811097868       -2.1898554207
  H        10.9273041038       14.8527630629       10.3383228127
  H        10.8390479200       13.2077426700       10.4675574711
  C         9.5508243605       14.1259320017       11.7583465093
  H        19.1773112310       15.8327914147       13.7475522142
  H        20.1282441950       14.8561915053       12.6649230243
  C        20.9896557375       15.1757236373       14.6045038395
  S        14.2808119789        5.8497037882       15.3897412918
  N        14.1215798800        6.3329004915       16.9839330203
  C        13.7770400335        8.4898762754       18.1276272909
  H        13.6269447133       10.6147138223       18.7957622072
  C        20.0512068454       15.2846582664       -3.3395441044
  N        19.9460482550       16.6059798953       -3.3856078048
  O        19.4760462311       18.3635978674       -2.0583798577
  H         9.2565879670       13.1788678442       12.2977390837
  H         9.6352628959       14.8306729500       12.6268256026
  C         8.5215839381       14.6674129548       10.7696020555
  H        20.5650384626       15.5391061077       15.5679407268
  H        21.3326770856       14.1557422141       14.8895777045
  C        21.9729891863       16.2776924830       14.1420347654
  C        13.5911999676        7.7202879281       19.3311683474
  S        20.4332730147       14.3922968904       -4.7800639708
  C        19.9295179836       17.3631057761       -4.6241308663
  H         7.8220512840       15.2278425844       11.3396589512
  H         8.9625248392       15.4804257671       10.2657187304
  C         7.9382230693       13.6325041631        9.8500690357
  H        22.0986175678       16.2305858647       13.0671030821
  H        22.9989898540       16.0783110545       14.3212774820
  C        21.5719310378       17.6652381732       14.6223950943
  H        14.0907061665        6.7234817286       19.4925024012
  C        13.0287060066        7.9867129910       20.5511633781
  H        20.6502626083       17.0062295745       -5.3662466423
  H        20.3109068129       18.2981305448       -4.4602738375
  C        18.5758685153       17.4246675163       -5.2715496336
  H         7.4223402224       12.8328158171       10.5036293179
  H         8.7383953936       13.0422713276        9.3538880595
  C         6.9978208145       14.0646753066        8.7908988414
  H        22.2224677424       18.3069546735       14.0309768637
  H        20.5381911960       17.9091991265       14.3424636915
  C        21.9518731667       18.0221226154       16.0720216276
  S        12.2019652697        9.4255844432       20.9700834131
  C        13.0904067612        6.9413230080       21.5905440378
  H        17.8336302254       17.2689454480       -4.4814718732
  H        18.4271980242       16.6095454375       -5.9700892512
  H        18.3261635110       18.3685664816       -5.6832919664
  H         7.2284152281       13.4584102649        7.8654049045
  H         5.9682821655       14.0222978144        9.1343495620
  H         7.2162593034       15.0575403657        8.3428815307
  H        21.8933519686       19.0812463966       16.3831497266
  H        21.4658123048       17.3420849681       16.7950287900
  H        23.0096913697       17.8770566955       16.2199458323
  C        11.8094333722        8.6162647695       22.4523458073
  N        12.3523676967        7.3961702355       22.6442211303
  O        13.6618853984        5.8755298288       21.4389127221
  S        11.1306556810        9.4807742375       23.8101238486
  C        12.3652635358        6.5719674511       23.8082466446
  H        12.2549321638        5.5106178249       23.6533044759
  H        11.5088665418        6.8649991556       24.3831883981
  C        13.5781027516        6.9960037027       24.5798275404
  H        14.6042068478        6.6332015794       24.4059874522
  H        13.2946259492        6.7277979101       25.6339721359
  H        13.6684411387        8.0656707447       24.7732170042
