352
 i =    82000, time =    82000.000, E =        25.3801151642
  H        10.3520930852        7.1689862241       31.7873191635
  C        11.3595594459        6.8045429903       31.9334816976
  H        11.8662089027        7.7098691333       32.2242187283
  C        12.0162167937        6.1370861563       30.7058856899
  C        11.5331472367        5.8997978945       33.2057766001
  C        11.1453852705        5.0300111068       30.1554622441
  H        12.0235003949        6.9389610129       29.9452085804
  H        13.0680853505        5.7873324976       30.9574722959
  H        11.9946671203        6.4687811420       34.0306071382
  H        10.5641524041        5.5525715454       33.4412316482
  H        12.1287066034        5.0363477909       33.0286394575
  C         9.9968974754        5.5134675882       29.1863229267
  H        10.6733169203        4.6106432212       31.0436262603
  H        11.7406237216        4.2204906040       29.7003079094
  C        10.6058607596        5.8507847887       27.7510390917
  H         9.3146368135        4.7058759403       29.1796869018
  H         9.4947587566        6.3863844993       29.5893878998
  C         9.7194932661        5.2698201396       26.6403860937
  H        11.6358536039        5.5927720197       27.6336768135
  H        10.6748676978        6.9445367601       27.5094883401
  C         8.3953565847        6.0182353643       26.5105998708
  H        10.2859318164        5.3424759589       25.7675290200
  H         9.6514957963        4.1806983804       26.7827373136
  C         7.4219246450        5.2879128883       25.5132474822
  H         8.0184899424        6.2488929296       27.4076824838
  H         8.7116606064        6.9114944466       25.9696788449
  C         7.0692259388        3.9502454524       26.1319271318
  C         7.8654587788        4.6284109003       24.2934072151
  C         6.2300575911        6.0972212469       25.0103494547
  C         7.3280186578        2.8591159887       25.2984800079
  C         6.6781613401        3.5836315070       27.4710132460
  C         7.7605304333        3.2682666243       24.0761964779
  C         8.4847597196        5.3131156390       23.2430901804
  H         5.7561622325        5.4819850411       24.2149620328
  H         6.5286059914        7.0744715912       24.6170272729
  C         5.2457461543        6.5749170014       26.1128507319
  S         7.0688645506        1.3527927348       26.0511553703
  C         6.5822165878        2.2342593150       27.5460391682
  H         6.5937429279        4.3284625226       28.1948578212
  C         8.2334624693        2.7083765797       22.9647060762
  H         8.7853490749        6.3083789956       23.4144948193
  C         8.8725657946        4.7341819075       22.0733727602
  H         5.3248250017        6.0012911697       27.0205482929
  H         5.3860912674        7.6497284189       26.3402751475
  C         3.8672921301        6.4497172179       25.5066245087
  C         6.1579581003        1.5811255203       28.8203037275
  C         8.8244110908        3.3865660093       21.8974030379
  H         8.3967489586        1.6493052115       22.8139770646
  C         9.3517353857        5.1577942748       20.8864172596
  H         3.8015730653        5.4080590347       25.2654420171
  H         3.6549712251        6.8238109546       24.4909501831
  C         2.7949397286        6.7599208358       26.5538725143
  C         6.2869995171        0.1903815438       29.1129701709
  C         5.7281674845        2.3850851221       29.9872442790
  C         9.1189828022        2.7056739097       20.6290486269
  C         9.4713607028        4.0919994500       20.0162007075
  S         9.6380026900        6.6945801392       20.1586265993
  H         1.8701043778        7.1465866382       26.0436513876
  H         3.1221251234        7.4646547373       27.3007016363
  C         2.3099342851        5.3816624768       27.1274183341
  N         6.7191719652       -0.7824852781       28.1894143134
  C         6.0063979761       -0.3304995035       30.3360714170
  C         5.3865250059        1.8398205938       31.2163461306
  H         5.7039478226        3.5010631041       29.9697926551
  C         7.8929053554        2.0533240753       19.9704708102
  C        10.3422900739        1.7439113382       20.8322652357
  C         9.7631785408        4.5079626744       18.6936391173
  C         9.9500549059        5.8588527823       18.5950593393
  H         2.0136051970        4.7147862407       26.2842640046
  H         3.1280784539        4.9096059131       27.5808666513
  C         1.1211398284        5.4445748315       28.1267417426
  S         6.6589350092       -2.2781480319       28.9007877845
  N         6.0717491458       -1.7454813574       30.3344308081
  C         5.5627112565        0.3964861325       31.5164742058
  H         5.0061463514        2.4820802696       31.9799511452
  H         7.5862985323        1.2850246414       20.6627744022
  H         8.3150944972        1.6838169862       19.0252311624
  C         6.6998096818        3.0688850744       19.6942662230
  H        10.7750377730        1.2775007774       19.9565783508
  H        10.0795075631        0.8615490682       21.4137109843
  C        11.5689874698        2.4516939043       21.4130897193
  H         9.7099627812        3.7530918572       17.9166987470
  C        10.2280179858        6.6550570037       17.3673201021
  H         0.5141624137        4.6604751758       27.7453776570
  H         0.5596725753        6.4350604330       28.0875456768
  C         1.3192601535        5.2391053466       29.6154953562
  C         5.2854304343       -0.3093908513       32.7424584571
  H         6.9991859475        3.9952345911       19.0720059299
  H         6.4199519896        3.7192148765       20.5200548799
  C         5.3170968287        2.4707414471       19.2033927078
  H        11.2795793410        2.8420567325       22.3813835181
  H        11.8181126083        3.3221628148       20.8624425474
  C        12.7299868604        1.4830439525       21.6486208533
  C        10.2963577626        8.0849363983       17.2665010153
  C        10.5814154396        5.9100597865       16.1657004987
  H         0.3553105791        5.4085472135       30.0716737911
  H         1.6668580414        4.2498685591       29.8036123172
  C         2.3177999916        6.1747994228       30.1956369163
  H         5.5651267060       -1.3410386820       32.6675704511
  C         5.0034623953        0.1109580005       34.0180468420
  H         4.5133996621        3.2225353809       18.8890623923
  H         4.8421435915        1.8811788794       19.9735159988
  C         5.4480712636        1.4300129416       17.9946365934
  H        12.5813013082        0.9574264071       22.6189825549
  H        12.7796525366        0.7384928846       20.8351331824
  C        14.0099751734        2.3059748453       21.7375190955
  N        10.1460579171        9.0169453233       18.3187832823
  C        10.6376828509        8.7516032113       16.0778645013
  C        10.8608319908        6.5830749226       14.9873334112
  H        10.4150670525        4.8859646740       16.0527859173
  H         2.6789550005        5.7525151942       31.1442858875
  H         3.1306891538        6.3939235307       29.5270256616
  H         1.8171569166        7.1231406912       30.4628295915
  S         4.4672997480        1.6755454416       34.4573788715
  C         5.0142200229       -0.8421582518       35.0580400469
  H         5.9329944816        1.8153916582       17.1381647520
  H         5.9809667717        0.5468593562       18.3259750192
  C         4.1006133770        0.7278285235       17.6250860562
  H        13.7876759073        3.1392430846       22.3689583723
  H        14.3085158063        2.6638560201       20.7578317398
  C        15.1058363460        1.5628698573       22.4068521314
  S        10.5113480893       10.4867715039       17.7975418133
  N        10.6041269095       10.1688683277       16.2339626479
  C        11.0047931432        8.0624536981       14.8508497720
  H        10.8731425057        5.9864205254       14.0714480279
  C         4.1391577494        1.0034973100       35.9606710763
  N         4.4254784222       -0.2773693833       36.1372840277
  O         5.4613138561       -1.9386924606       34.8673972938
  H         4.3743726128        0.4121572226       16.5829803167
  H         3.3071006314        1.4498194544       17.6338098648
  C         3.8348970448       -0.5899190355       18.3849450454
  H        14.6122620747        0.9376156519       23.1716242433
  H        15.3967962874        0.9113893848       21.5912029376
  C        16.1734199886        2.4979536518       22.8632270223
  C        11.4090674577        8.6726973192       13.6273775892
  S         3.6010621924        1.9338823957       37.2959196290
  C         4.3070497509       -0.9478581828       37.4330516570
  H         4.4848010193       -1.3323557297       17.9360463712
  H         4.2654894806       -0.3550834434       19.4449805516
  C         2.3840442209       -0.8830278332       18.2328556624
  H        15.7653294728        2.9781747873       23.7750108086
  H        16.3008044080        3.3642636470       22.1480374820
  C        17.3894469403        1.7109959332       23.2065320495
  H        11.2233139773        9.7827388971       13.5502036730
  C        11.8165763859        8.2063041144       12.4133248811
  H         3.5352962523       -0.5379119096       38.1315251070
  H         3.8176081560       -1.8924360079       37.1936259036
  C         5.6766734503       -1.1361575851       38.2107510587
  H         1.7228196048       -0.0139009989       18.2756586405
  H         2.1794947030       -1.5499691489       19.0746768486
  C         2.1188096159       -1.6132240241       16.9421918886
  H        17.7379326604        2.2915919891       24.0319579761
  H        17.1521874161        0.7516960668       23.5112764578
  C        18.5944150935        1.7270196610       22.3260979005
  S        12.5177824274        6.6877798040       11.9996116218
  C        11.9009276835        9.2027921652       11.3209270444
  H         5.6445941830       -2.0893183814       38.7695846797
  H         6.5341436782       -0.9726750743       37.4791328394
  H         5.6084063955       -0.3638441509       38.9445044771
  H         2.5941557717       -2.6148773131       16.9109361409
  H         2.4825021378       -1.0284262622       16.1113685673
  H         0.9988751736       -1.5259800567       16.8697055188
  H        18.6596187122        2.7452995021       21.8773773302
  H        18.4599707939        1.0942762954       21.4937550273
  H        19.5279343292        1.4312518529       22.8222767601
  C        12.8842611233        7.3993998087       10.4163790149
  N        12.5905879553        8.7100170995       10.2721144575
  O        11.4852362015       10.3835883701       11.3887687277
  S        13.7019207922        6.5031827919        9.1805431234
  C        12.7828133512        9.3994704380        9.0070563416
  H        12.8044134333       10.4852993758        9.2060930195
  H        13.6894113399        9.1748371135        8.4024409937
  C        11.4753612737        9.2942080513        8.2476673003
  H        10.7280891363       10.0451273307        8.5640805007
  H        11.6528385228        9.5536342623        7.2567230395
  H        11.0346698585        8.3471938406        8.3959915522
  H        22.0464579800       11.2599663120        2.9498132243
  C        22.2707737992       10.2185426729        3.0185485548
  H        21.2760129281        9.8420204511        3.1730621607
  C        23.1364744816       10.0625752593        4.2602132870
  C        22.8650003384        9.7114957433        1.6997585365
  C        22.4327704848       10.2712885696        5.5370921958
  H        23.6087723388        9.0887216653        4.3016054394
  H        24.0234926742       10.7449903316        4.3570073937
  H        23.5816780631       10.4367086046        1.2140898990
  H        22.0325666354        9.4967561748        0.9922971729
  H        23.3395720380        8.7183148576        1.9538237564
  C        21.6621892911        8.9755899765        6.0069456149
  H        23.1111091399       10.7334700373        6.3048548050
  H        21.7047364604       11.0427850358        5.3652331878
  C        20.5957362495        9.2132527978        6.9896462477
  H        22.3197542773        8.2602387756        6.4462015782
  H        21.2171927611        8.5016463064        5.1337984925
  C        19.2072454080        9.4558948175        6.2998368009
  H        20.9385234094       10.1970163228        7.4535019773
  H        20.4394901019        8.4789139491        7.7329248206
  C        18.1093810088        9.7599991016        7.3679477388
  H        19.2643365400       10.3432750460        5.7266388034
  H        18.9533735028        8.5331825438        5.7517649823
  C        16.8692129962       10.6785540839        7.0541232158
  H        18.6229680298       10.0666699178        8.3123340361
  H        17.7228011829        8.7184493371        7.7595963310
  C        17.1797229146       12.0503771332        6.3611267666
  C        16.3847338107       11.3832975963        8.2539427446
  C        15.8145533910        9.8320695998        6.2786215210
  C        16.8925553287       13.1622638546        7.1038638471
  C        17.7500801880       12.4095683404        5.1262093490
  C        16.4247059697       12.7815215952        8.3524947677
  C        15.9903966411       10.7231511396        9.4578827780
  H        16.2944875292        9.4477417293        5.3122955005
  H        15.4789370042        9.0217216497        6.8139119349
  C        14.4786876842       10.6359504459        5.9041615847
  S        17.4273300569       14.6197429113        6.3681381815
  C        17.9900560948       13.7736664566        5.0170726064
  H        17.9502907271       11.7088452213        4.3703079566
  C        16.0118865557       13.3488362210        9.5468654157
  H        16.1823113868        9.6297346810        9.5265809094
  C        15.7208715895       11.3148628830       10.6288366544
  H        14.8346259636       11.4607748791        5.2702528717
  H        13.8712605532       11.1369397688        6.7159060144
  C        13.5168124191        9.8452673323        5.0438507932
  C        18.4798358251       14.4304945932        3.7335311960
  C        15.7328439932       12.6228906030       10.7609917813
  H        15.7665238014       14.4112009615        9.7033908464
  C        15.3469422858       10.8852987795       11.8814336514
  H        12.5534671544       10.4097155154        4.9481362956
  H        13.3968694809        8.9002076703        5.4812892084
  C        14.1047105964        9.6117294318        3.6946046403
  C        18.4362671391       15.8296482364        3.4867373034
  C        18.9423340895       13.6448512123        2.5930297747
  C        15.3018489485       13.3729810335       12.0092848860
  C        15.1808280138       12.0115679996       12.7411217843
  S        15.1473583564        9.4130386384       12.7250102280
  H        14.4294760800        8.5906664247        3.6535168419
  H        14.8924924252       10.3117188061        3.3976770922
  C        13.0063964594        9.7182379705        2.5974710824
  N        17.9636956856       16.7568638970        4.4021196024
  C        18.6958613970       16.3753659602        2.2740463528
  C        19.0962863655       14.2197245712        1.3321133909
  H        18.8675022823       12.4777555396        2.6303046504
  C        14.0150890816       14.1211052687       11.8931732798
  C        16.3800233311       14.2249364824       12.6140048788
  C        14.8516463627       11.6204867420       14.0209595295
  C        14.7654051502       10.2716384156       14.1677101353
  H        12.1292441074        9.1276403211        2.9084579164
  H        12.6855398117       10.7873591741        2.6129974851
  C        13.4277666382        9.3916675913        1.1624678496
  S        17.9953846161       18.2343199572        3.7836385313
  N        18.5183165872       17.7734391477        2.2627672947
  C        18.9021960275       15.6461122097        1.0979334308
  H        19.2729749130       13.5607231290        0.5414333864
  H        14.1772698057       14.9506209014       11.2024764697
  H        13.6186888054       14.4681002384       12.8840514296
  C        12.8446201328       13.2908507087       11.3004953003
  H        16.6148268721       14.9882600599       11.8072978647
  H        15.8848709850       14.6383565399       13.4859007659
  C        17.5888456151       13.4789262172       13.1584297905
  H        14.5566968670       12.4178399004       14.7116861528
  C        14.3917888293        9.5867181437       15.4472928997
  H        13.1130716191        8.3602066949        0.9792714234
  H        14.5085774951        9.4597042126        1.0713137864
  C        12.7898502200       10.3882963707        0.1174822230
  C        19.1619033399       16.2988988655       -0.1444503536
  H        13.1250834145       12.7793142480       10.3767988930
  H        12.5255126803       12.4316680259       11.9178609580
  C        11.6800559327       14.2484045598       10.9041597385
  H        17.7982889560       12.5588819561       12.5597595521
  H        17.3796986941       13.0664390802       14.1394333489
  C        18.9062822019       14.3177364816       13.3253539496
  C        14.2876216817        8.1582890954       15.5355931933
  C        14.0865156965       10.2860733714       16.7339584702
  H        11.6822787179       10.5281338330        0.3026883001
  H        13.2244310931       11.4028633677        0.3072126660
  C        12.9093642599        9.9820769418       -1.2731449030
  H        19.1338991077       17.3668568648       -0.0785157810
  C        19.3592922661       15.7865792803       -1.4093063552
  H        12.0182510910       14.9991986748       10.1644256865
  H        11.3995746448       14.7068650462       11.8348515993
  C        10.4653204511       13.5298589640       10.3328941293
  H        19.2101958907       14.7705635663       12.4515455059
  H        18.6414542712       15.0169585540       14.0976026366
  C        19.9919387517       13.3726391539       13.8086024507
  N        14.3390945455        7.2942106595       14.4626252968
  C        13.9029002857        7.4409514466       16.6849273063
  C        13.7428276148        9.5822477888       17.8464041611
  H        14.2923578824       11.3411846213       16.8569070915
  H        13.5374305705       10.7668658863       -1.7584254732
  H        12.0341703652       10.0770809379       -1.8490648132
  H        13.3980291870        9.0373097100       -1.3804000391
  S        19.4568917503       14.1749299807       -2.0098531129
  C        19.4979684213       16.8124684243       -2.4543723519
  H        10.8461754440       12.5996404375        9.7935157751
  H         9.9287662391       13.0303903637       11.1620977637
  C         9.4711537970       14.3527711289        9.4486993081
  H        20.2755781170       12.7083939517       12.9788657290
  H        19.7305835385       12.8199286943       14.6895688598
  C        21.3203416440       14.1168092864       14.0207639682
  S        14.3111263100        5.7284255124       14.9667656888
  N        13.9738141778        6.0542416067       16.5365916102
  C        13.5747186519        8.1154212725       17.8921904825
  H        13.6999932772       10.0933992747       18.7787371886
  C        19.7258694783       14.8989600568       -3.6079687262
  N        19.7299525320       16.2711112792       -3.6316442860
  O        19.3309948006       18.0041900144       -2.2201137131
  H         9.1701056831       15.0532353544       10.2191703259
  H         9.9622352246       14.9532902245        8.6203567189
  C         8.2126988384       13.5442568483        8.9732919025
  H        21.9598477646       13.4072187055       14.6207816994
  H        21.8718984109       14.0943513799       13.0626261474
  C        21.4081074473       15.4926677279       14.8503963030
  C        13.1974152090        7.3078664755       19.0267880761
  S        20.3420329743       14.0605826974       -4.9369954050
  C        19.7155667392       17.1270607923       -4.8639888286
  H         8.3001833127       13.2208424339        7.9283853534
  H         8.2078632433       12.5571865303        9.4323829600
  C         6.8404863397       14.1147578509        9.2091785135
  H        21.9502408853       15.3345468270       15.8206153106
  H        20.4475776769       15.8937847167       15.1332812956
  C        22.2091489625       16.4971937042       14.1080521472
  H        13.1820975005        6.2531600628       18.9321915738
  C        12.8189509148        7.6705341676       20.3183469600
  H        20.1713849941       16.6309056920       -5.6847809276
  H        20.0916574053       18.1340825374       -4.5395314265
  C        18.2119323075       17.2429518335       -5.2600543738
  H         6.0255057798       13.7023257146        8.5197352375
  H         6.9588939188       15.1900902276        8.9487985600
  C         6.4173557993       13.8747619182       10.6467126894
  H        23.1554733837       16.0329547500       13.8698559647
  H        21.7653082246       16.5157018676       13.1575808289
  C        22.2560177052       17.8086378470       14.9550173594
  S        12.4300683759        9.2555853720       20.8221626649
  C        12.8195621611        6.5960469373       21.3121911758
  H        18.2291546995       17.4641957293       -6.3383651248
  H        17.7743531660       17.9798843091       -4.6041813674
  H        17.5931081829       16.2962069872       -5.2535359808
  H         6.6050929507       12.9119337035       11.1502275333
  H         7.0051160682       14.6806954129       11.1774231984
  H         5.3380482156       14.1500135007       10.7047832096
  H        22.6435853440       17.6503707709       15.9525458360
  H        22.6263257452       18.6654921419       14.4657047897
  H        21.2801663806       18.0956236473       15.1803909129
  C        11.9798247469        8.4470496391       22.3801107044
  N        12.2387575431        7.1295151666       22.4024734081
  O        13.3092880081        5.4788084712       21.1821927840
  S        11.0610003506        9.0917116596       23.7306263314
  C        12.0315478012        6.2921949185       23.5885067849
  H        11.9001433446        5.2312738393       23.3780864074
  H        11.0961242078        6.5342281202       23.9858564996
  C        13.2393200041        6.2493770840       24.4812599794
  H        13.6510925961        5.2204572765       24.5560206769
  H        13.1854055766        6.7093368578       25.4789925123
  H        14.0634923225        6.8095846915       24.0464051299
