352
 i =    78700, time =    78700.000, E =        24.8566932920
  H        10.1766852349        7.0702692368       32.1152899211
  C        11.2310963206        6.9064264507       32.0503233898
  H        11.7425435686        7.8542155131       32.0550577815
  C        11.6671823336        6.3342242923       30.6759730788
  C        11.7196508504        5.9745258978       33.1460946218
  C        10.7315215677        5.3377295270       30.0436874906
  H        11.8534619598        7.1903904571       29.9985504204
  H        12.6526861613        5.8320992132       30.7360839385
  H        12.7504458977        6.2043166525       33.3199925588
  H        11.3296828740        6.2054007906       34.1584878270
  H        11.4006567738        4.9436842819       32.9740923496
  C         9.8471090404        5.8933908213       28.9409148991
  H        10.0046269975        4.9071365041       30.7121821856
  H        11.2570349156        4.4519708834       29.7274355666
  C        10.2937162580        5.7841075566       27.5099480429
  H         9.0310638639        5.2356324274       28.9855312742
  H         9.5626716852        6.8698355836       29.2239135756
  C         9.3344236951        4.9018543194       26.5970500104
  H        11.3032131008        5.3418991968       27.5913798729
  H        10.4185079409        6.8168170897       27.1134008232
  C         8.1059039651        5.7315954557       26.1709158366
  H         9.9125784164        4.8080896207       25.6734355041
  H         9.0225352472        3.8832186903       26.9759450954
  C         7.0212868496        4.9002576596       25.4355862287
  H         7.6175359416        6.1520922537       27.1431380493
  H         8.4445195318        6.5803592517       25.6246882014
  C         6.6345513031        3.5586797962       26.1455331035
  C         7.5393103524        4.0568898236       24.3174745723
  C         5.8494692818        5.7305078595       24.9707537340
  C         6.9735913091        2.4077899967       25.4074118185
  C         6.1334467299        3.1632101075       27.3868899076
  C         7.5029112085        2.6920984546       24.2062737000
  C         8.0602302379        4.7246628791       23.2073453459
  H         5.1643839965        5.0417136691       24.3673718256
  H         6.1722723882        6.4803897402       24.2889103933
  C         4.9671393037        6.5476833000       25.9276857285
  S         6.7390571892        0.8726555977       26.2391854795
  C         6.3204354040        1.8270175685       27.6309367469
  H         5.8658344346        3.9921538409       27.9480518116
  C         7.9063793292        2.0692858798       23.0362668444
  H         8.1054041038        5.7312307523       23.1019115154
  C         8.4882341271        4.1251050879       22.0782982153
  H         4.8731156541        6.0625489711       26.9374646587
  H         5.5136568005        7.4316343382       26.1043110732
  C         3.5623197577        6.7778923789       25.2507018420
  C         5.9424867517        1.1747752442       28.9224025909
  C         8.4481956549        2.7847306688       21.9226338871
  H         7.7344581163        1.0555453174       22.8902008906
  C         8.9351124644        4.5418020878       20.8233945038
  H         3.2632806684        5.7902213166       24.9140205753
  H         3.5827202589        7.5002927766       24.3812263213
  C         2.5457822080        7.3103849607       26.2815609374
  C         5.9512867690       -0.1944013212       29.2778711179
  C         5.4284369080        2.1199370092       30.0027324801
  C         8.7302093726        2.0832961107       20.6222935598
  C         9.0410808296        3.4679451068       19.9746118491
  S         9.3280034442        6.0553852087       20.0476789624
  H         1.5973127476        7.5062016528       25.8375175797
  H         2.9706466897        8.2370786009       26.5930437023
  C         2.2828980582        6.3634321048       27.3894221474
  N         6.3218333523       -1.2494171093       28.4071366644
  C         5.7357911627       -0.6667095738       30.5651466491
  C         5.2681808580        1.6368744409       31.3344161535
  H         5.3236765677        3.2078603474       29.7761529691
  C         7.4635762864        1.4821708244       19.8739495768
  C        10.0106554325        1.1877089052       20.6518257173
  C         9.4294567338        3.8390834277       18.7097803406
  C         9.5309320854        5.1671236469       18.5730110672
  H         2.6291530104        5.2948452645       27.1200543952
  H         2.8484670107        6.6711172025       28.2917622265
  C         0.7608226212        6.0830839439       27.6664938843
  S         6.2047591887       -2.6751587088       29.1505472140
  N         5.7760569611       -2.0730514890       30.5979997362
  C         5.3310238792        0.1856512973       31.6116844337
  H         5.0128461290        2.4174086416       32.1132268939
  H         7.1809202404        0.5617654559       20.4180026215
  H         7.8130844658        1.2630031531       18.8603903030
  C         6.2848599884        2.4162160417       19.7301821650
  H        10.2732684815        1.1038884739       19.5604792560
  H         9.7578374149        0.2279938014       21.1377441209
  C        11.2141686033        1.9833123860       21.3117560746
  H         9.6033581773        3.0798876985       17.9722843227
  C         9.9961875426        5.8523768439       17.3700980619
  H         0.4493880980        5.6593075407       26.6849633047
  H         0.1445418926        6.9474982454       27.8212175737
  C         0.6036777449        4.8938614206       28.6753817771
  C         5.0829847537       -0.3228239965       32.9875242354
  H         6.5128786989        3.0717552206       18.8910628022
  H         6.0781108548        3.0037468717       20.6421698635
  C         4.9633011046        1.6297810006       19.4905198063
  H        10.9505774832        2.4011511030       22.3206012963
  H        11.4877049805        2.8647811493       20.6573105211
  C        12.4365348255        1.0174257065       21.5616759385
  C        10.1179329016        7.2633752032       17.2876989032
  C        10.2290659088        5.0927576105       16.0940264897
  H        -0.4791873220        4.6671895896       28.8713750107
  H         1.1478205016        3.9891123409       28.4536954430
  C         1.1546129561        5.2935978443       30.0755652381
  H         5.1116684267       -1.4071027896       33.0372950902
  C         4.8050388747        0.2692370069       34.2000192796
  H         4.1757385315        2.3668433633       19.5584312348
  H         4.7249590999        0.9328357607       20.3016365835
  C         5.0575594871        1.0391797110       18.0097764477
  H        12.0651033088        0.2887946656       22.3237766741
  H        12.6460483967        0.4625280278       20.6762365692
  C        13.6235807158        1.8855366144       21.9520898329
  N         9.9576215622        8.2863368141       18.2802828640
  C        10.3542574819        7.8960904271       16.0473989909
  C        10.4310218420        5.8035851223       14.9187103770
  H        10.0841068614        4.0107417144       16.0678745641
  H         0.9265809794        6.3464484945       30.2446734854
  H         0.7801845667        4.7199847445       30.9226275029
  H         2.2370475585        5.2785808188       29.9690004137
  S         4.7275817947        1.9365551791       34.6410669098
  C         4.6291846255       -0.5458998792       35.4011807593
  H         5.2247370284        1.8809487246       17.3665229438
  H         5.9287301992        0.3367832759       17.9310731310
  C         3.9095670766        0.3305273381       17.4607355702
  H        13.3761856261        2.7648861120       22.4835162796
  H        14.1262361502        2.2351508350       21.1222786319
  C        14.7121724735        1.0981360844       22.6771743869
  S        10.1212957126        9.7432179037       17.6134648908
  N        10.4833365865        9.2969959235       16.0958311037
  C        10.4630570428        7.2549271281       14.8183444670
  H        10.4944315570        5.2543629997       14.0296678751
  C         4.4207407084        1.4620713946       36.2647471160
  N         4.3138062191        0.1578731689       36.4772947733
  O         4.8681695308       -1.7595155650       35.3305222951
  H         3.9541055178        0.1116585053       16.3847311828
  H         3.0702883585        0.9810856147       17.5472879335
  C         3.5735772342       -0.9864616535       18.2139474962
  H        14.2971152427        0.3373067306       23.3242025658
  H        15.2514772410        0.6070594003       21.8319779609
  C        15.5638445098        2.0981243304       23.4893655229
  C        10.6890110302        8.0598061465       13.6528396877
  S         3.8915605243        2.5531475318       37.5616894081
  C         4.0999703342       -0.3827872291       37.8032905975
  H         4.3083104552       -1.7093656942       18.0434591243
  H         3.4395592333       -0.7603253390       19.2648915157
  C         2.2516709927       -1.6242633904       17.7856378551
  H        14.9942899548        2.3577569471       24.3345300854
  H        15.8040429955        2.9686403817       22.8990019783
  C        16.8992107305        1.4238595779       24.0405802402
  H        10.0914217007        8.9630229940       13.7094088828
  C        11.4139293729        7.8598707600       12.5438425908
  H         3.5417139170        0.2969582699       38.4222703329
  H         3.4157048646       -1.1801435795       37.7433518342
  C         5.4041379837       -0.8371218151       38.5193237850
  H         1.4191790216       -1.0166201438       18.0834764568
  H         2.1768006823       -2.5622543999       18.3376428559
  C         2.0622526501       -1.9601991856       16.2561852349
  H        17.2369758242        2.0532768568       24.8513063597
  H        16.5578015508        0.5315762329       24.5091932128
  C        18.0668971076        1.2036333585       23.0862967022
  S        12.1520765954        6.3984456635       12.0226211190
  C        11.3951441425        8.9418455183       11.5421104807
  H         5.3158083812       -1.0495822905       39.5438225388
  H         5.6927704886       -1.7781113566       38.0441527071
  H         6.1586837401       -0.0548868499       38.5627398005
  H         2.1506891503       -1.0902071508       15.5375042854
  H         1.1152569327       -2.4275062956       16.1366415708
  H         2.8745530630       -2.7082557383       16.0533445496
  H        18.0899998091        1.9958959549       22.3948594449
  H        17.8814676823        0.3754357161       22.4048223703
  H        19.0670917734        1.0550719625       23.5087094121
  C        12.4936309369        7.2776629632       10.5389727465
  N        12.0729258300        8.5491768854       10.4391463775
  O        10.8320967155       10.0244221140       11.7461462688
  S        13.2517132827        6.4894621165        9.1090912670
  C        12.0685745067        9.3404777000        9.2545492351
  H        11.9797822581       10.3725044127        9.5577053033
  H        12.9210002172        9.2932999661        8.6101379321
  C        10.7854584051        8.8507797073        8.5727848220
  H         9.9097499698        9.3609970533        8.9739631906
  H        10.8273274748        9.0366447238        7.4703075459
  H        10.5214360929        7.8086211998        8.6337025979
  H        21.0926002623       11.0126423633        3.5080045376
  C        21.5548143253        9.9581592903        3.4324044101
  H        20.6720649946        9.4149007477        3.6352427053
  C        22.6331681539        9.6588419195        4.5303913086
  C        21.9768809563        9.7547525898        2.0199505478
  C        22.1097568071        9.8947832315        5.9290125669
  H        23.1049609078        8.6838468278        4.3900717048
  H        23.3813186302       10.4236046468        4.3859842203
  H        22.6085189285       10.5880298336        1.6711215988
  H        21.1185769385        9.7628209343        1.4394809274
  H        22.5143376953        8.8300211933        1.8860330488
  C        21.4903965644        8.6216791627        6.4970130731
  H        22.7824159680       10.2962683374        6.6134851212
  H        21.4545616589       10.6594334099        5.8890275632
  C        20.3510588947        8.9694071863        7.4827484278
  H        22.2672213269        8.0884518778        7.0213350945
  H        21.1090051314        7.9403392678        5.7214543224
  C        19.0894328213        9.3089514933        6.7160888325
  H        20.5878371378        9.7218127660        8.1987428841
  H        20.2426328865        7.9772588399        8.1036552185
  C        17.9318582774        9.5725685755        7.6787025852
  H        19.3133095446       10.1635533574        6.1294282702
  H        18.6992002658        8.6045682446        5.9957503892
  C        16.7668793952       10.4868594753        7.1762185580
  H        18.1957798911       10.1655799508        8.5095137810
  H        17.5313178002        8.5320956883        7.9353417937
  C        17.2031982540       11.8949800063        6.5203674523
  C        16.2891026504       11.2086386063        8.4006773474
  C        15.4915650423        9.7810047423        6.4243782724
  C        16.9901070679       12.9667548237        7.3849551837
  C        17.5252424445       12.2311770124        5.2323662452
  C        16.3446515282       12.5656723976        8.5211121462
  C        15.7623736238       10.5679736893        9.4898046372
  H        15.8437845453        9.3778502781        5.4400239772
  H        15.0510930212        8.8885260204        6.9482125912
  C        14.2974493541       10.7574217003        6.2418949255
  S        17.5021800147       14.4267867462        6.5844072944
  C        17.8326195583       13.6074014544        5.1148173059
  H        17.4345161675       11.5428535602        4.4753237497
  C        15.9159687429       13.1733870733        9.6386530723
  H        15.5605220358        9.5134441372        9.5042428267
  C        15.4590204398       11.1991576927       10.6711417830
  H        14.6421560127       11.7379290635        5.8809015312
  H        13.7439626752       11.0548212643        7.1668411929
  C        13.2029370568       10.2384849022        5.3164707173
  C        18.2192146275       14.2624792730        3.8132954436
  C        15.6173992505       12.5163634358       10.8430437784
  H        16.1236716115       14.2310127075        9.6685503723
  C        15.1119118973       10.8233222251       11.9033026393
  H        12.2723591705       10.8147887529        5.2856859258
  H        12.8901458914        9.3124397432        5.7593143447
  C        13.6314844807        9.9729362175        3.9121761069
  C        18.0325536917       15.6319236482        3.6041066083
  C        18.5417339316       13.4414274651        2.6164884489
  C        15.1901164064       13.2302909464       12.0021715148
  C        14.9352995689       11.9273364195       12.7150688701
  S        14.7447121674        9.2937463776       12.5831996683
  H        14.0979791996        8.9769552368        3.8505914557
  H        14.3281656640       10.7568104196        3.5758475793
  C        12.4927451132        9.8940272035        2.9117327085
  N        17.8442717995       16.5862939177        4.6077064611
  C        18.2673436767       16.2121164613        2.3623916909
  C        18.6980144000       13.9988600250        1.3658157034
  H        18.7265504896       12.3248349550        2.7159480090
  C        13.9451515413       14.0737078594       11.7526583475
  C        16.3617532488       14.0630935650       12.5961928410
  C        14.6384437351       11.4800295752       14.0341035412
  C        14.4712232050       10.0989460787       14.1314354990
  H        11.6292896084        9.3814032500        3.2975858457
  H        12.1988207273       10.9022077017        2.7566892317
  C        12.8839582778        9.2889809027        1.5489514612
  S        17.5484507251       18.0159485576        3.8586020505
  N        18.1184082956       17.6303229943        2.4067027294
  C        18.6086843231       15.4347818215        1.1856085437
  H        19.0020844283       13.3879973814        0.5434343656
  H        14.1101780255       14.7539414003       10.9316843153
  H        13.7623354082       14.6786574636       12.6994293648
  C        12.7540390066       13.1915747209       11.2576178895
  H        16.6785449485       14.7727692388       11.8158155069
  H        15.8425547234       14.7723010625       13.3424224845
  C        17.5926597489       13.2605627273       12.9875751414
  H        14.6440981425       12.2521701312       14.8274175069
  C        14.1830578221        9.3756630796       15.4508974088
  H        12.1325995002        8.5534304412        1.2254016331
  H        13.9257390792        8.8798725096        1.5158957152
  C        12.7668060953       10.3704092464        0.4822768319
  C        18.8072466872       16.1230081414       -0.0118566388
  H        13.1119283278       12.5778819823       10.3913932251
  H        12.4894988510       12.3449354686       11.9101411992
  C        11.5018451441       13.9798230530       11.0801309022
  H        17.9632787341       12.6123060313       12.1435203264
  H        17.2750755195       12.5745767554       13.7536351382
  C        18.6286305699       14.2118063440       13.4847439652
  C        13.9649201218        7.9950667973       15.5280002223
  C        14.1478103778       10.0211201333       16.7915592883
  H        13.1190159955       11.3406473623        0.8005131275
  H        13.3155091577       10.0972748745       -0.4291917641
  C        11.3144537358       10.5378376602       -0.0470282897
  H        18.5680310419       17.1359101451        0.0659982369
  C        19.1983700335       15.7930918472       -1.3139458967
  H        11.5671658274       14.8173777419       10.2963425010
  H        11.3654964738       14.5719959411       11.9560226247
  C        10.2769880005       13.0565455882       10.9459272602
  H        18.8433840855       14.9009595347       12.6809399881
  H        18.1705788387       14.6930527768       14.3124457417
  C        19.8838671832       13.4977779142       14.0338217135
  N        14.1641339755        7.1079079208       14.4850942340
  C        13.5613384414        7.3694995149       16.6985242045
  C        13.7438993615        9.4045664768       17.9335398529
  H        14.2866854420       11.0824436041       16.8705651470
  H        10.6878494475       10.8586381704        0.7413860353
  H        10.8893896501        9.5837389798       -0.2549542298
  H        11.2660777934       11.1802218547       -0.8978853140
  S        19.5616347409       14.1995474601       -1.8307980549
  C        19.2238430525       16.7928754794       -2.3710360035
  H        10.6601379537       12.2310423984       10.2422789884
  H         9.9850058712       12.6181856054       11.8615336796
  C         9.0484424584       13.6461903266       10.2599518111
  H        20.5206145753       13.0241202183       13.2850164950
  H        19.4094624447       12.6672411441       14.5734444438
  C        20.6607019831       14.2907546628       15.0408305770
  S        13.8810351487        5.6063900037       15.0357186286
  N        13.4913100735        6.0213377797       16.5419147989
  C        13.4493338867        8.0032773563       17.9278829941
  H        13.5961996810       10.0094510680       18.8599179409
  C        19.5540489151       14.8918417026       -3.5079296790
  N        19.4482356259       16.2359732383       -3.5614260146
  O        18.9160459872       17.9868221819       -2.1523766418
  H         8.5052586173       14.2324028794       10.9833884264
  H         9.3641225560       14.4866915722        9.6112880488
  C         8.1209422043       12.6709338556        9.5204974414
  H        20.0794727909       14.6901592453       15.8772048808
  H        21.4139838692       13.6683883823       15.5834059930
  C        21.5342110974       15.3406715827       14.3348729741
  C        12.9949941032        7.2162810783       19.0090177869
  S        20.3704749101       13.9915552817       -4.8600442122
  C        19.4427923293       17.0470512867       -4.7843249644
  H         8.6342561873       11.9364147390        8.9460262400
  H         7.5410405127       12.0362653277       10.2425252711
  C         7.1021424441       13.4484164615        8.7179524305
  H        21.0621533486       15.9269104451       13.5091419778
  H        22.4513497100       14.8475115682       13.8740625867
  C        21.9585391058       16.4768233872       15.3056428282
  H        13.1706707380        6.1573077528       18.8233029324
  C        12.5426327684        7.4482894277       20.2690043714
  H        20.1080879638       16.6179693048       -5.4589916951
  H        19.8611142294       18.0426436488       -4.5140210825
  C        17.9970793882       17.1833978433       -5.3335586943
  H         6.9650844215       12.8157539874        7.7884609801
  H         7.4079303770       14.3873370371        8.4135826030
  C         5.7448127561       13.5214542331        9.4565073731
  H        22.5434328120       16.1208313685       16.1167253852
  H        22.5623618891       17.1539709078       14.7224318274
  C        20.8338582387       17.2505491918       15.9744371872
  S        12.1922890350        8.9661351003       20.9820704580
  C        12.3711855115        6.2889379033       21.2109012070
  H        17.8659779800       17.6933378858       -6.2775772030
  H        17.2745352893       17.4900866127       -4.5742553785
  H        17.6956543782       16.1449986699       -5.5389468620
  H         5.8818482752       14.0038061591       10.4479964897
  H         5.0827966732       14.1626104641        8.9112895645
  H         5.3268703108       12.5268267581        9.6373576490
  H        20.9001021961       18.3664831805       15.8608674749
  H        19.9378334699       16.9950285569       15.4743349530
  H        20.7386105575       17.0532345683       17.0376876907
  C        11.7361266679        8.0673578220       22.4083582247
  N        11.8653839512        6.7320697670       22.3618694260
  O        12.6571505505        5.1359253202       20.9961982823
  S        11.1208943057        8.8308627728       23.8545302077
  C        11.6674794249        5.7740365702       23.5533238010
  H        11.6128855986        4.8109036588       23.0473304797
  H        10.6892094061        6.0660447640       24.0282305290
  C        12.9009304268        5.7441860063       24.4112095184
  H        13.3006495917        4.7068756404       24.4076669597
  H        12.6590922347        5.9078247592       25.4476467587
  H        13.5928219838        6.4588410021       24.0866230532
