352
 i =    42000, time =    42000.000, E =        25.0308341573
  H        12.1524451014        7.5894060757       31.4738975836
  C        11.7183280544        6.6031004892       31.4925903655
  H        12.3183272566        5.8676742416       31.1281973613
  C        10.3755779925        6.7097351597       30.8667735624
  C        11.5604988785        6.0164555671       32.8959222084
  C        10.5136244482        7.0028099556       29.3092033762
  H         9.8080823760        5.7893558417       31.0349219453
  H         9.7661745827        7.4617480703       31.4016452013
  H        10.6956374873        5.3734034609       32.9729576617
  H        12.4256546125        5.4248719102       33.2093302300
  H        11.4407624276        6.7930078726       33.6247962406
  C        10.6326730899        5.6805360126       28.4886405823
  H        11.4064393873        7.5995406183       29.1039083853
  H         9.6746926031        7.6849554763       29.0292163875
  C        10.8003284708        6.0391237988       26.9890238278
  H        11.3237585725        5.0200452851       28.8266499782
  H         9.7290070571        4.9604675983       28.5076679684
  C         9.7651794666        5.5025169616       26.0369369057
  H        11.8185018547        5.6821379240       26.7073883363
  H        10.9261457584        7.0860378505       26.8939568496
  C         8.5315955621        6.2903700931       25.8627459861
  H        10.1803383232        5.2582377646       25.1089851314
  H         9.6035139052        4.4933331578       26.4276050473
  C         7.4071621938        5.5515197101       25.0812609144
  H         8.1711174244        6.5893443220       26.7591397465
  H         8.9820690926        7.1682590732       25.3428805472
  C         7.0230102632        4.2235957280       25.7438531841
  C         7.9373737103        4.8064540406       23.8808421715
  C         6.0670086673        6.3473567139       24.9486474957
  C         7.3015525549        3.1090049321       25.0300682896
  C         6.5405914943        3.8660734539       27.0160321575
  C         7.8932989903        3.4371522455       23.7751686717
  C         8.3761757186        5.4154175115       22.7473282883
  H         6.1819988319        7.1301032984       24.2349075555
  H         5.7954478730        6.8363925107       25.8477236020
  C         4.9902271472        5.4906771879       24.4189148817
  S         6.9356166620        1.6104986809       25.8224433301
  C         6.3970750097        2.4856833021       27.1887272919
  H         6.2840393839        4.5847155079       27.7510487753
  C         8.3134583440        2.8349086737       22.6715215348
  H         8.3406488972        6.5279196423       22.8569736831
  C         8.7133364731        4.8245152070       21.5970310903
  H         5.3131095362        5.1352232054       23.4064710818
  H         4.7889807686        4.6101811818       25.0183031531
  C         3.5334049355        6.1209641851       24.1797983471
  C         5.8895870129        1.8531017521       28.4567708998
  C         8.7605854259        3.4652786839       21.5328922246
  H         8.3135557326        1.7449803539       22.6624636374
  C         8.9961500363        5.2258844997       20.3370928407
  H         2.7927996029        5.6450720995       23.5644756133
  H         3.6118027644        7.0878949843       23.5957586572
  C         2.9716743075        6.4820565796       25.4878367697
  C         5.9251060844        0.4495160100       28.6169727103
  C         5.4102623674        2.6504797650       29.6250936316
  C         8.9933705109        2.7766946395       20.2268773981
  C         9.1517520068        4.1387766676       19.5090084789
  S         9.2503212160        6.7818976531       19.5868093407
  H         2.1809304388        7.2398004739       25.2408444017
  H         3.7073539906        7.0212702617       26.1917528984
  C         2.5428772871        5.2560668103       26.4169564513
  N         6.2927346613       -0.5310637541       27.6248383136
  C         5.5208561855       -0.2268510606       29.7678011634
  C         5.0794924054        1.9718186128       30.8231575616
  H         5.2354595585        3.7186519356       29.4973456777
  C         7.8056243360        1.9819324319       19.7161788342
  C        10.3738544699        2.0329785801       20.2612267518
  C         9.5744161676        4.5122929317       18.2490584151
  C         9.7063637276        5.9040399828       18.0911998861
  H         1.9631874911        4.5770529213       25.8965648063
  H         3.4727787935        4.7162093812       26.6482844234
  C         1.8110093613        5.6739954529       27.7458024545
  S         6.2837661999       -1.9999692264       28.2915142856
  N         5.7344119231       -1.6123863058       29.7625625242
  C         5.0697081306        0.4775632763       30.9049772938
  H         4.7090089048        2.5136441296       31.6719078179
  H         7.5894485615        1.1140719878       20.3455739673
  H         7.9200194400        1.6540276161       18.7189867967
  C         6.4746751464        2.7712926368       19.5558211231
  H        10.6213256290        1.6333184217       19.2841907502
  H        10.3505508843        1.1128229821       20.8713598213
  C        11.6378985911        2.8586559400       20.7376129516
  H         9.7331482135        3.8029769925       17.4403720923
  C        10.0209080495        6.6654781427       16.7993221181
  H         1.0375775432        4.9191418027       27.9744854276
  H         1.2608763478        6.5930857120       27.6116390966
  C         2.8014788591        5.7565789178       28.8675226359
  C         4.8724847702       -0.2561561683       32.1420183663
  H         6.5713183200        3.5179407129       18.8134126992
  H         6.1529865980        3.2136908745       20.4575326494
  C         5.3502442329        1.8779200240       19.1039287536
  H        11.6087750137        3.2991277534       21.7110657150
  H        11.7586183736        3.6649511476       20.0167007542
  C        12.9315159094        2.0012919455       20.6306087958
  C        10.0201821435        8.0573673377       16.6453940166
  C        10.4089945168        5.9106351237       15.6360304410
  H         3.3357022121        4.7550993690       28.8198326865
  H         3.5545882516        6.5053341015       28.4808615140
  C         2.2904987098        6.1530181475       30.2986332159
  H         4.8680764312       -1.3098847141       31.9801922815
  C         4.7139494000        0.1590193159       33.4543149299
  H         4.6090370133        1.8160635637       19.9153854379
  H         5.6378802439        0.9016531265       18.7279896169
  C         4.4620399537        2.5475691117       17.9766015742
  H        12.9524283807        1.1494585678       21.2923994055
  H        12.8999438056        1.6295967612       19.6041382820
  C        14.2243171927        2.8417962526       20.6611395829
  N         9.7489205252        8.9625322606       17.6364237080
  C        10.4138360627        8.6644444699       15.4877861614
  C        10.7356799636        6.5003779707       14.4587722589
  H        10.4682690918        4.8231167948       15.6977479555
  H         1.4324201860        5.5963421049       30.5873164815
  H         3.0887704064        6.0759431603       31.0422456689
  H         2.0837953975        7.2370801357       30.3409813126
  S         4.5131905634        1.7505586436       34.0519721141
  C         4.6514013984       -0.8465737540       34.5671210722
  H         4.1084675604        3.4637996448       18.3612849298
  H         4.9759363716        2.8412988927       17.0727452606
  C         3.2016148839        1.7450825655       17.6519298792
  H        14.3366063753        3.5994412338       19.8084651864
  H        15.0001993884        2.0347668456       20.4674696416
  C        14.5120541263        3.4621052924       22.0150929310
  S         9.7311247283       10.4919465085       17.0354561351
  N        10.3738569701       10.0645614741       15.6212683974
  C        10.7994845799        7.9547889621       14.3724148651
  H        10.7938543809        5.9397215958       13.5819717889
  C         4.4462467860        1.0755669965       35.7174497357
  N         4.4807876398       -0.2708065958       35.7945488255
  O         4.5702253993       -2.0234459464       34.2348212815
  H         2.4556451174        2.2732245167       17.0810775421
  H         2.7276694191        1.6595574911       18.6090501518
  C         3.5819570182        0.4214598326       16.8400570310
  H        15.3340843878        4.1370029546       21.8835661886
  H        13.6709332945        4.0023643792       22.4402201070
  C        15.1057165234        2.5320668113       23.0045365905
  C        11.1497521052        8.7301835976       13.2237890689
  S         4.2006390682        2.0478671866       37.1398336881
  C         4.4956809076       -1.0629472101       37.0127880690
  H         3.1847996944        0.3802145410       15.7925192147
  H         4.6643606434        0.3325646742       16.6468822364
  C         3.1872478639       -0.8687893009       17.5617060182
  H        14.7770238703        1.5707734512       22.8423749378
  H        14.7706609263        2.7821972472       23.9719360512
  C        16.6177757057        2.6973088172       23.1724006349
  H        11.0322617371        9.7928407660       13.3556812325
  C        11.7154156461        8.2797784400       12.0477476260
  H         3.9668822710       -0.5465256227       37.8506158320
  H         3.9002663217       -1.9500275053       36.8979960996
  C         5.9604340692       -1.3636462124       37.2837484986
  H         3.2471972711       -0.5980210499       18.6078868571
  H         3.9487654198       -1.6138100397       17.3010987402
  C         1.7325532334       -1.3071933253       17.2466632135
  H        16.9320712944        3.7039628956       23.2414921563
  H        16.9287433590        2.1636336797       24.0962206984
  C        17.4835867110        2.1542117457       22.0559889792
  S        12.2434919183        6.7225960923       11.5959118606
  C        11.8450594892        9.2759693682       10.9994200610
  H         5.9861127029       -2.3230121089       37.8415480906
  H         6.6117982703       -1.5249404479       36.3946008477
  H         6.4629511837       -0.5999738849       37.8408643319
  H         1.2818375849       -1.8167249314       18.0979286484
  H         1.6585827934       -1.9554316401       16.4241754589
  H         1.1945266915       -0.3947368084       17.0788515013
  H        18.5497557287        2.2343474760       22.3782953956
  H        17.5560866670        2.6721192284       21.0769794836
  H        17.1987183969        1.1399201277       21.8656979060
  C        12.3829570210        7.3868999865        9.9587817210
  N        12.3320551542        8.7183206395        9.8910229471
  O        11.4766284994       10.4457700167       11.0917439054
  S        13.0836988237        6.5875750104        8.5411127674
  C        12.3888853390        9.5317921113        8.6421527220
  H        12.5215854509       10.5285279910        8.8654681848
  H        13.2944403083        9.2171482447        8.0908593242
  C        11.1501639495        9.2581141864        7.8025660205
  H        11.1810964496        9.9838076706        7.0128523610
  H        11.0037353704        8.2061448301        7.4965832104
  H        10.2489985342        9.4371619797        8.4634548953
  H        21.2396526632       11.1461922359        3.0092359363
  C        22.0355305378       10.4450445359        3.1749687351
  H        21.4973083270        9.5377972584        3.4023835205
  C        22.9324102820       10.6875811591        4.3532968213
  C        22.8194565067       10.1138888753        1.9453368666
  C        22.1080722496       10.8003994364        5.6482015056
  H        23.7989101593       10.0052797028        4.6150138615
  H        23.4255197896       11.7361989911        4.1662215727
  H        23.6809067623       10.7180881624        1.8819005611
  H        22.2578246718       10.3597928187        1.0086540358
  H        23.1927255994        9.0601949433        1.8932949142
  C        21.2562353035        9.5337380029        6.0489434561
  H        22.7493667477       11.0183897635        6.4971045321
  H        21.4838585804       11.6581110497        5.6262445603
  C        20.4533299623        9.5952612856        7.3468609584
  H        21.9106366660        8.5956044636        5.9947916550
  H        20.6235157271        9.2329194420        5.2171931424
  C        19.1233394915       10.4103847092        7.2615665268
  H        21.1663826763        9.9544957533        8.1565869748
  H        20.3133648488        8.5567099293        7.7135358505
  C        17.9155153515        9.7718985491        6.6250308349
  H        18.9383520070       10.8265176033        8.2611389892
  H        19.4271427879       11.3052207681        6.6275560510
  C        16.7076468028       10.7476729618        6.5493876803
  H        17.6522697777        8.8448994967        7.1298115697
  H        18.1968746259        9.5027764681        5.6102789064
  C        17.1407147600       12.0702844351        5.8626987929
  C        16.2966396534       11.4454920740        7.8203061916
  C        15.5920766553       10.0576939349        5.6946594000
  C        16.9775896054       13.1983346434        6.6728963137
  C        17.6924439655       12.2808359021        4.6781971556
  C        16.4598359814       12.8140289369        7.9387387985
  C        15.8952215115       10.8068296320        9.0083708277
  H        16.0549680595        9.8233857639        4.7418239699
  H        15.2779709477        9.1596224388        6.1588119150
  C        14.3340604710       10.9436436659        5.5641037471
  S        17.5443358544       14.5546001627        5.8253865434
  C        17.8766289852       13.5953364178        4.4363904879
  H        17.8630255629       11.5250237726        4.0380908959
  C        16.0768185030       13.3688650491        9.1516188259
  H        15.9048911598        9.7115355061        9.0419222389
  C        15.5146704479       11.4017495508       10.1766607416
  H        14.5477131533       11.9422095555        5.2881717779
  H        13.7171118857       10.9401827123        6.4810281778
  C        13.2545727264       10.3316371570        4.6236405465
  C        18.3403120619       14.1957536497        3.1199234598
  C        15.6294408286       12.7265051347       10.3045231510
  H        16.2986926272       14.4218986603        9.2327120560
  C        15.0784696528       11.0477617657       11.4265978165
  H        12.2824061414       10.7887112586        4.7373812375
  H        12.9908612226        9.2431998452        4.9433057268
  C        13.6946274166       10.2605781616        3.2160063637
  C        18.2167517885       15.5330566384        2.8143831196
  C        18.8099756628       13.3184637299        2.1065852968
  C        15.2652819590       13.4850708285       11.5347865166
  C        14.8989637735       12.1529690553       12.2539674901
  S        14.8460358980        9.5991662345       12.3258477391
  H        14.3172809456        9.3860168757        3.0809187212
  H        14.2758867796       11.1056172214        2.8817813981
  C        12.4871442033       10.1227190823        2.3089519392
  N        17.7882214155       16.5737788335        3.6473667314
  C        18.4464955298       15.9862493084        1.4949183761
  C        19.0619022363       13.7219596688        0.8035945796
  H        19.3044978168       12.4279339799        2.4419221741
  C        14.0676233027       14.4579315836       11.3635485585
  C        16.4396105862       14.2247457020       12.0809487010
  C        14.5022729279       11.8054193510       13.5884491882
  C        14.4109374161       10.4175979839       13.7646618233
  H        11.6887651655        9.5645648724        2.7441131223
  H        12.0722682290       11.0808132688        2.0166239368
  C        12.9400649851        9.5621235656        0.9491135894
  S        17.8609085384       17.9765811815        2.8015439246
  N        18.2164486538       17.3955613775        1.3453613409
  C        18.8388365005       15.1531074306        0.4010076952
  H        19.4427520373       12.9522894638        0.1129679923
  H        14.3225336679       15.1778544074       10.6219115686
  H        13.9643768117       14.9918553590       12.2932199329
  C        12.7740970409       13.7393272420       10.9946665524
  H        16.9861771855       14.6854369179       11.2177723569
  H        16.0910615280       15.0903681451       12.6603728408
  C        17.3497484231       13.3818594246       13.0069627144
  H        14.3968578200       12.6573438197       14.2868651450
  C        14.0719592819        9.7591433563       15.0663112373
  H        12.8304624762        8.4687234823        1.0662986722
  H        13.9441152627        9.9130541712        0.8525778066
  C        12.2240391393       10.2511710896       -0.1532607033
  C        19.0127470426       15.7608619774       -0.8724033198
  H        12.9511514833       13.1435829967       10.1085252470
  H        12.5457984440       12.9545141723       11.6762200642
  C        11.6524132975       14.7088149667       10.7378468383
  H        17.5884938831       12.4663812104       12.5102502054
  H        16.8448768695       13.0802400948       13.9286808268
  C        18.5935684272       14.1531216045       13.4187718143
  C        13.9415606158        8.3360705608       15.2550241069
  C        13.6817945312       10.5390442766       16.2547502669
  H        11.1863467207       10.2955987735        0.1465294119
  H        12.5212138680       11.2730783896       -0.1840874651
  C        12.4231518163        9.6048492455       -1.5182699571
  H        18.7222481239       16.8373312946       -1.0011667272
  C        19.3583325899       15.2619872671       -2.1365677338
  H        11.8766785542       15.3519783491        9.8818018182
  H        11.4474494607       15.4119160323       11.6215938057
  C        10.4530974036       13.8552335642       10.4855703609
  H        19.3856173170       14.1166929422       12.6123424676
  H        18.4763637936       15.1904722458       13.5949579271
  C        19.2692480747       13.5944563741       14.6556538263
  N        14.1775836839        7.4188153950       14.2437201702
  C        13.5794611001        7.6907750759       16.4186150897
  C        13.3181247841        9.8832339831       17.4597337146
  H        13.8486459529       11.5958710501       16.2126521340
  H        13.4877774177        9.3395996097       -1.7569174202
  H        11.9789644468       10.3391792789       -2.1810088800
  H        11.9620155884        8.6718956836       -1.5878634534
  S        19.6317052327       13.6405513675       -2.6378456799
  C        19.4093798456       16.2779157075       -3.2147710285
  H        10.7061112243       12.9156469939        9.8910446140
  H        10.1634626925       13.4978460678       11.5237974948
  C         9.3125085683       14.4623010297        9.7416654826
  H        19.3204687737       12.5205862726       14.6373411886
  H        18.6068469829       13.7403590656       15.5111875450
  C        20.6957777874       14.1017970140       14.8710194500
  S        13.9524422180        5.9200292547       14.7948711408
  N        13.5758213590        6.3248573336       16.3609779879
  C        13.2290577498        8.4198254658       17.5489541015
  H        13.0948887082       10.4600962070       18.3034362520
  C        19.8069216901       14.3246900885       -4.2157496498
  N        19.6399817126       15.6419514826       -4.3322302931
  O        19.1912879183       17.4649263700       -3.0727634472
  H         8.6921204508       15.1580053186       10.3195839780
  H         9.7602033383       14.9805073167        8.8369944333
  C         8.3435207526       13.4435960062        9.2502594737
  H        20.9687225034       13.7700654425       15.8717695019
  H        21.3639678824       13.5098243095       14.2276606942
  C        20.8050226113       15.6251686785       14.8265613875
  C        12.9664172806        7.7391254143       18.7821286710
  S        20.5721112948       13.4128107481       -5.5589604957
  C        19.6205988793       16.3653304979       -5.6078111137
  H         8.7751132406       12.8615536814        8.4130513909
  H         8.2160472535       12.7002900455       10.0130489994
  C         6.9770920720       13.8937516177        8.7851324789
  H        21.3856707071       16.0531967083       15.7210586829
  H        19.8582390295       16.0957645253       14.9887582336
  C        21.1807834074       16.1828887272       13.3542843453
  H        13.0996839965        6.6538944843       18.7904238453
  C        12.4442766506        8.1191168592       19.9688679064
  H        19.7203436503       15.6219216462       -6.4840352402
  H        20.4551793844       17.0976196540       -5.7491018725
  C        18.2617372863       16.9318554589       -5.8279789588
  H         6.6949069718       13.5228043753        7.8275387143
  H         6.9775057951       15.0049214908        8.5438823770
  C         5.9196217291       13.7323461135        9.9306706050
  H        22.0951107833       15.7412460700       13.0681172230
  H        20.5310358892       15.9679873430       12.4884174944
  C        21.2440808356       17.7597500060       13.4518956336
  S        12.0270469424        9.7553047017       20.4754197310
  C        12.3318857796        7.1850346586       21.0530199109
  H        17.9194645611       16.7388702773       -6.8481160340
  H        18.3039914587       18.0232581942       -5.6626533272
  H        17.4903373269       16.4732648024       -5.2112443984
  H         6.1740670310       14.4680031821       10.6527822920
  H         4.9306560636       13.7741210174        9.4981247036
  H         5.9503676269       12.8131892011       10.4932862300
  H        21.2463085087       18.0816856193       12.4555481906
  H        20.4632634721       18.2500343967       14.0497188053
  H        22.2839435441       18.0541060904       13.7743735421
  C        11.7160378089        9.1060010383       22.0677325598
  N        11.8768190719        7.7782822152       22.1541849566
  O        12.4909867643        5.9808787163       20.8535547944
  S        11.0594004900       10.0670275993       23.4362767173
  C        11.6686799367        6.9890924226       23.3173913422
  H        11.5316339986        5.8780264459       23.2003362746
  H        10.8767610739        7.3024930907       23.9369553121
  C        12.8695734694        7.0941174608       24.2606687133
  H        12.4781553090        7.6440118864       25.0729477946
  H        13.6161861628        7.6624531954       23.7367263863
  H        13.3597302147        6.2126201787       24.6177529901
