352
 i =    44000, time =    44000.000, E =        25.2606789634
  H        10.0864924158        7.0698458030       32.1863052057
  C        10.9569992704        6.3864325694       31.9833025295
  H        11.8381484361        7.0191633915       31.7472842466
  C        10.3987740939        5.4746478951       30.8587261123
  C        11.2363034818        5.5647704164       33.2479690054
  C        10.9944203976        5.8392799419       29.5297012852
  H        10.4909519270        4.4441657770       31.1128709395
  H         9.2953082193        5.6545271691       30.8242272321
  H        12.1158689477        4.9691907278       33.0707157447
  H        11.5369760671        6.1620973419       34.1274801890
  H        10.4322208660        4.9306253752       33.4983719671
  C         9.9465331873        5.9761751482       28.4566385182
  H        11.7100767408        5.0417708400       29.4341006315
  H        11.4611352433        6.8195744791       29.6721566078
  C        10.4261629512        5.9051081205       27.0039725163
  H         9.2578052171        5.1666634283       28.6218427425
  H         9.3293579337        6.8339382706       28.8228183963
  C         9.3623722207        5.1760314974       26.1897872640
  H        11.3636351273        5.2971609857       26.8426408823
  H        10.6537630704        6.8729649106       26.5712797785
  C         8.1067501863        5.9378570323       25.8416659960
  H         9.7168011498        4.9315152486       25.2048586636
  H         9.1240142354        4.2117125835       26.5354242083
  C         7.0679487167        5.0187348611       25.1046331728
  H         7.5682379233        6.3139901592       26.6909387018
  H         8.3161719193        6.8273244870       25.2390162681
  C         6.7961359599        3.6533822550       25.7905197806
  C         7.4807689882        4.2898318117       23.8779079838
  C         5.7359776810        5.8620479532       24.8034671047
  C         7.1086006205        2.5500336571       25.0375879241
  C         6.3627713076        3.2337793696       27.0838993660
  C         7.5250587334        2.9642476571       23.8092214796
  C         7.9360608623        4.9442001686       22.8153740415
  H         5.9483247590        6.3560955516       23.8948256539
  H         5.5916026128        6.5371329694       25.6467436709
  C         4.3774043391        5.2006572947       24.5519288820
  S         6.8707687555        1.0684118675       25.8611128192
  C         6.3549284436        1.8626595929       27.2736229742
  H         5.9750341641        3.9243544156       27.8283132815
  C         7.9440483274        2.3550698627       22.6628293996
  H         7.9705523145        6.0151404675       22.8997514520
  C         8.3040011918        4.3262066259       21.6466226532
  H         4.1927763128        4.8952613797       23.5149956477
  H         4.2893053532        4.2890367100       25.1381946409
  C         3.2911676336        6.1974325750       24.9810559582
  C         6.0006292382        1.2838013771       28.5601217354
  C         8.3445951845        3.0226655947       21.5207678756
  H         7.9096776294        1.3124798503       22.5055273147
  C         8.8081112872        4.7192534138       20.4376075035
  H         2.4369962279        6.0667414414       24.2964201032
  H         3.5373886152        7.2076987447       24.8541245731
  C         2.8762070066        6.0073645553       26.4597432622
  C         6.1770427719       -0.1401297173       28.8593357525
  C         5.3190579432        2.0867134621       29.6095278278
  C         8.7363880558        2.2606683928       20.3448616745
  C         8.9747453879        3.6335936062       19.6101358252
  S         9.2019822265        6.2221328202       19.6835079885
  H         2.1183311029        6.7475912983       26.6931232543
  H         3.6486676344        6.3474117516       27.0762676449
  C         2.2639537038        4.6396510329       26.8089098433
  N         6.3733403957       -1.1968704236       27.8676448136
  C         5.8818129220       -0.6264579495       30.0788230989
  C         5.0007932917        1.6201871979       30.8688487656
  H         5.0246037069        3.0977162081       29.3581974731
  C         7.6723482483        1.4182157197       19.5868132317
  C        10.1225773562        1.5596368911       20.4600992671
  C         9.3235856134        3.9879056309       18.2976616365
  C         9.4508816444        5.3801524931       18.1599666151
  H         1.6593203026        4.2358262690       25.9605893657
  H         2.9034653623        3.8275809619       26.9868738409
  C         1.4401998829        4.7059568716       28.0149724318
  S         6.2696237647       -2.6712756907       28.6956937062
  N         6.0036932578       -2.0659620239       30.1945500031
  C         5.4323092854        0.2048803806       31.1631617517
  H         4.5859478765        2.3163765457       31.5489120950
  H         7.3992082820        0.5607608407       20.1650985969
  H         8.0204754120        0.9394100817       18.6699911847
  C         6.3468698051        2.1836653049       19.3211858966
  H        10.3538733719        1.0062627639       19.4776494790
  H         9.8783277500        0.6772834966       21.2038831350
  C        11.3399605631        2.4263187136       20.9066399414
  H         9.5338620141        3.2424265583       17.5299324905
  C         9.7565611244        6.2009383389       16.9100106692
  H         1.1120971125        3.7120318417       28.2057277537
  H         0.6035412426        5.3543310930       27.7084873522
  C         2.1500350932        5.1115610536       29.2842311654
  C         5.1275550552       -0.4378700439       32.4538693969
  H         6.5484464888        3.1140585161       18.9230854454
  H         5.8482912149        2.4497016842       20.2544088928
  C         5.2895951388        1.3685773231       18.4925782914
  H        11.1416412500        2.7735153392       21.8944016703
  H        11.5724330550        3.3404121006       20.3263747207
  C        12.5677252094        1.5471952129       20.8423776350
  C         9.9014988635        7.6114255651       16.7321045903
  C         9.9470531274        5.4253180789       15.6229389261
  H         2.9174670723        4.4082296877       29.4416240032
  H         2.4729249463        6.1458356795       29.2187930715
  C         1.1070118681        4.9223227265       30.5128766092
  H         5.2199033578       -1.4851472520       32.4170138340
  C         4.7868775178        0.0370282727       33.6969866658
  H         5.0224373807        0.4757287545       19.0760268844
  H         5.7784909265        1.0312851420       17.5396972786
  C         4.0246761833        2.1662808246       18.0656096940
  H        12.4912080042        0.7748364354       21.5526612243
  H        12.6153852032        1.0084828148       19.8780266254
  C        13.8344251364        2.3474876668       21.0653390065
  N         9.5046972230        8.5345510973       17.7146926922
  C        10.3285293312        8.1413677610       15.5295045567
  C        10.3935437259        5.9794513672       14.4345566021
  H         9.6593140135        4.3529156770       15.6194454914
  H         0.1870715784        4.4539449092       30.2685466015
  H         1.5954961663        4.4036704998       31.3158955627
  H         0.8388079725        5.9192641552       30.8963028070
  S         4.4642409558        1.6412715965       34.0592115767
  C         4.6772200232       -0.9143447594       34.8011330728
  H         4.1226222165        3.2737519364       18.3683674323
  H         3.9556238311        2.1371293129       16.9946244585
  C         2.7296603271        1.6845374605       18.7324494815
  H        13.7841959897        3.0582073982       20.3123275217
  H        14.7355259095        1.7402754629       20.8430973510
  C        13.9233484058        2.8741377864       22.4756295999
  S         9.9667484303        9.9621095464       17.1836581099
  N        10.3770577533        9.5597754584       15.6092885071
  C        10.5348416388        7.4501469933       14.3240140469
  H        10.4625745916        5.2886642970       13.5367540355
  C         4.3161996197        1.1376061652       35.7379675218
  N         4.3322684025       -0.2048478739       35.8907712359
  O         4.7088450408       -2.1361249081       34.6796068142
  H         2.0039496416        2.5550213121       18.8556698992
  H         3.0736777510        1.2950949912       19.7170652969
  C         2.1087144965        0.6028957228       17.8493614816
  H        14.4807610120        3.7542761034       22.5050299125
  H        12.9980032876        3.0966782328       22.8246251764
  C        14.4471645028        1.7898682601       23.3458064303
  C        10.8819319977        8.2069068240       13.1301451236
  S         3.9145458725        2.1976276085       37.0515797415
  C         4.2386639337       -0.8780833856       37.1939800804
  H         1.0342916842        0.4592687112       18.1540662921
  H         2.0829963592        0.9398546707       16.7897379290
  C         2.7456234061       -0.8110734440       18.0215461807
  H        14.0489172547        0.7826417808       23.0908869419
  H        13.9208632581        2.0057990956       24.2521934843
  C        15.9664193364        1.8769102567       23.5730815583
  H        10.7196693678        9.2388667937       13.1783540937
  C        11.4508636672        7.8611473569       11.9304962286
  H         3.5354923676       -0.3148633920       37.7728854648
  H         3.8352550215       -1.8815563316       37.0243808820
  C         5.5498406140       -0.9266402714       37.8798268787
  H         3.0658603010       -1.0308450119       19.0010484490
  H         3.7097371881       -0.7395329154       17.4802088067
  C         1.9424101350       -1.9173593881       17.4285630434
  H        16.1663126414        2.8249949066       24.0708406037
  H        16.2731341075        1.0300505933       24.2050237100
  C        16.8657734547        1.7285959240       22.3573320832
  S        11.9288031384        6.2554082000       11.4240277313
  C        11.5894840009        8.9652929330       10.9308746322
  H         5.2702836650       -0.8554646101       38.9571116162
  H         6.2389109543       -1.6892167882       37.6164257676
  H         6.0763284591        0.0323367730       37.6743093352
  H         2.3629298841       -2.8761848564       17.4256225675
  H         1.6523635648       -1.8772963161       16.3598501749
  H         1.0041309944       -2.0298115965       17.9490112929
  H        17.8829374719        1.5571534207       22.6824531044
  H        16.8526833730        2.5502171080       21.6887475887
  H        16.5644261291        0.8802976201       21.7843856295
  C        12.2958941268        7.0094168025        9.8341133194
  N        12.0348741562        8.3767217871        9.8256318574
  O        11.5296345764       10.1639047531       11.2253764363
  S        12.7938084644        6.1132064912        8.4283045368
  C        12.2835570035        9.1447410371        8.6751609661
  H        12.6398477937       10.1096537368        9.0934581105
  H        13.1300645294        8.8385411045        8.0297340320
  C        10.9643649232        9.2935033176        7.9219642349
  H        10.6251546941        8.3351873555        7.4452068210
  H        10.1569179689        9.6192582026        8.6554296140
  H        11.1322345735       10.1606635056        7.2390824351
  H        22.0632957687       11.1565229506        3.4869595310
  C        22.6095847016       10.3279276886        3.8750965612
  H        21.8851471106        9.5497080223        3.8745982606
  C        23.1396505476       10.5986973420        5.2665623397
  C        23.8154060807       10.0708975819        2.9221433047
  C        21.9681442203       10.7226812910        6.1752760781
  H        23.8176351029        9.8491944707        5.7165622828
  H        23.7962399041       11.4389535923        5.3442241921
  H        24.6710264176        9.7374578848        3.5164731082
  H        24.0407821431       10.9395764687        2.2997273703
  H        23.6171582798        9.2153663979        2.2987661245
  C        21.1424413951        9.4318685044        6.4260748326
  H        22.3717991003       11.1336309710        7.0982019891
  H        21.3529366543       11.6113211095        5.8461418997
  C        20.2101710781        9.4046692870        7.6381992168
  H        21.8957562603        8.5912266638        6.5155932563
  H        20.6105739487        9.1482655765        5.4937528362
  C        18.9814540730       10.3362881759        7.6013264164
  H        20.7615811638        9.6718327425        8.5454485760
  H        19.8997227629        8.4100260373        7.8542561574
  C        17.7492823550        9.8002010344        6.8165231496
  H        18.7275756565       10.6547672663        8.5977324507
  H        19.3102892347       11.2077775818        7.1167376162
  C        16.5351366621       10.7323541037        6.8519680567
  H        17.5295638926        8.9318083576        7.4012793761
  H        17.9604977313        9.4319769759        5.7902334828
  C        17.0083668795       12.0962879689        6.3102688905
  C        16.2092526997       11.3917689380        8.1357729305
  C        15.3507912985       10.1456599759        5.8901339828
  C        16.8329865296       13.1511179874        7.1952198204
  C        17.6049715029       12.5265701906        5.1185591595
  C        16.3183606309       12.6960554905        8.3215708415
  C        15.6284982495       10.7126721995        9.2262579551
  H        15.6577617121        9.8853720583        4.9171377788
  H        15.0351493126        9.1382451465        6.2484469464
  C        14.1517535006       11.0931678823        5.7751203493
  S        17.2269740021       14.6955869790        6.5180030889
  C        17.6870115737       13.8854411166        5.0069275356
  H        17.7704559645       11.7660474973        4.4201190957
  C        15.9451132981       13.3526160392        9.4409666841
  H        15.4522074823        9.6482621845        9.0531096487
  C        15.3610403097       11.3518481048       10.4327792723
  H        14.5885923225       11.9650590398        5.2399915744
  H        13.7539308369       11.3427035653        6.8282047519
  C        12.9277335031       10.6233680607        4.9941360554
  C        17.9812066162       14.5480480942        3.7279559676
  C        15.4680188391       12.6987637375       10.5981848747
  H        16.0288091844       14.4301300410        9.4801483445
  C        14.9834142648       10.9691427986       11.7038532608
  H        12.2379713679       11.4534843892        5.0155725748
  H        12.3974491241        9.7756896976        5.3984110009
  C        13.2577184731       10.3147106093        3.5410949716
  C        17.9483939769       15.9382746375        3.5469325658
  C        18.2762013915       13.7700170063        2.5099752692
  C        15.1519299696       13.3533713644       11.8629461776
  C        14.8233493944       11.9792419124       12.5871771333
  S        14.7287342078        9.4504434186       12.4777852060
  H        13.8240176917        9.4427374052        3.5357583674
  H        13.7917980418       11.1504205249        3.0982842020
  C        12.1073700527       10.0435067075        2.6236649763
  N        17.5617581847       16.8962509508        4.5291305642
  C        18.2110273012       16.5844531248        2.3198076388
  C        18.6228102914       14.3267300420        1.3292526246
  H        18.2626850413       12.6720346244        2.6820747476
  C        13.8459293193       14.2239687906       11.7641601235
  C        16.3127524485       14.1300626303       12.5272255120
  C        14.2835816648       11.6340052020       13.8293313816
  C        14.3254524867       10.2743551229       13.9510505399
  H        11.4121650331        9.3931527985        3.0807952798
  H        11.5312687018       10.9211927426        2.6374646113
  C        12.4279074205        9.5429325030        1.2461986371
  S        17.5300776703       18.3568278154        3.8454396855
  N        17.9662315408       17.9493817342        2.3520361744
  C        18.6213256817       15.8201713690        1.1652558382
  H        18.8477840840       13.6841886740        0.4684912622
  H        14.1280033182       15.1789663854       11.2279328458
  H        13.5655261211       14.4416414142       12.7671656651
  C        12.6474802542       13.6053127099       11.0809907511
  H        16.6209857760       14.9038567408       11.8551642745
  H        15.9980753590       14.5236282893       13.4799864726
  C        17.5311528312       13.1868467931       13.0991999578
  H        14.2157715575       12.3624918389       14.6218871004
  C        13.9277195726        9.5864309069       15.1911103969
  H        11.4798591595        9.3572209579        0.8304655766
  H        13.1257109438        8.6840279295        1.2717226766
  C        13.1924559028       10.5452471935        0.4165536404
  C        18.9123625585       16.5951885890        0.0342324292
  H        12.9777335721       13.1228606314       10.2243430181
  H        12.2953916678       12.7964903409       11.7224208443
  C        11.4918746016       14.5785001018       10.8921968924
  H        17.7808948700       12.3797615384       12.4319271639
  H        17.1577630923       12.7225132957       13.9889816074
  C        18.6785969046       14.0263301008       13.5436033183
  C        13.9685696975        8.1738039497       15.3396291511
  C        13.5974301139       10.3491414636       16.4176379433
  H        13.2292053667       11.5374539663        0.7671513182
  H        14.2246484218       10.2843159827        0.4017629214
  C        12.7042010721       10.5983992032       -1.0431784081
  H        18.7242004879       17.6252414748        0.1342660563
  C        19.1189709137       16.1813725993       -1.3214886916
  H        11.7274215964       15.2134621090        9.9891828378
  H        11.3364025491       15.1978576071       11.7784228466
  C        10.2676259101       13.6057694831       10.6234097238
  H        19.0326214318       14.6446112507       12.7633753210
  H        18.3395093474       14.7251611163       14.3699575541
  C        19.8101639398       13.1931044516       14.1384111142
  N        14.1774089867        7.2820014239       14.2893562895
  C        13.4852495654        7.4967919079       16.4410776792
  C        13.3051237078        9.6618298429       17.5663780395
  H        13.5916608032       11.4673958858       16.4290580634
  H        11.6678640437       10.8001337469       -1.0504826398
  H        12.8203574301        9.6621772773       -1.5719771858
  H        13.2015596933       11.3483152119       -1.7370530789
  S        19.4635584571       14.6015850121       -1.9215114287
  C        19.2070937723       17.2937865602       -2.3174413323
  H        10.5178477399       12.9312152494        9.7694059784
  H        10.1027286270       13.0550731695       11.5469679514
  C         8.9279946616       14.2735525321       10.2792740580
  H        19.9307182366       12.2903033663       13.5111007152
  H        19.6680608782       12.9213979256       15.1262684733
  C        21.1209635034       13.9572096956       14.1617678788
  S        14.1949878196        5.7219778082       14.8133285720
  N        13.7264231214        6.1335592408       16.3106984714
  C        13.1978407446        8.1409667480       17.6376963237
  H        13.1457130832       10.2677792391       18.4354559061
  C        19.6812426974       15.4632983266       -3.4704407920
  N        19.5493838069       16.8145492566       -3.4630349184
  O        18.7541853300       18.4344450750       -2.1508285355
  H         8.3191467582       14.0777732600       11.1976346314
  H         9.0524303253       15.3361500772       10.2177446894
  C         8.2889588933       13.5693952832        9.0991534267
  H        21.8412759769       13.2725980104       14.5969486565
  H        21.4078187188       14.1107664578       13.1501593056
  C        21.0935934496       15.2707160035       14.9430211166
  C        12.9160852585        7.3529739395       18.8463266666
  S        20.2465406944       14.7307463951       -4.9487212416
  C        19.5643469619       17.6413804838       -4.6606431305
  H         8.9336523461       13.7133973023        8.2465733200
  H         8.1761615134       12.4915474100        9.2139122357
  C         6.8959905334       14.1001695898        8.8599907314
  H        21.7647693775       14.9881847816       15.7725667331
  H        20.0644439108       15.5170452979       15.3658517226
  C        21.6911795015       16.4475894874       14.1617247827
  H        12.7994439224        6.3155861778       18.7033073557
  C        12.2874198054        7.6835364445       20.0060192345
  H        20.1850288135       17.2889920550       -5.5166172753
  H        19.8982172491       18.6530039600       -4.5083504288
  C        18.1697032439       17.6707585584       -5.2929915157
  H         6.5547385179       13.5078921731        7.9882299322
  H         6.9507611439       15.1846108959        8.6117255131
  C         6.0242004757       13.8457271631       10.1148771834
  H        22.5515193703       16.0291269925       13.6703606698
  H        21.0167068873       16.8802201282       13.4744537046
  C        22.3381019501       17.3553948831       15.2308372598
  S        11.7084862669        9.2236577781       20.4934476957
  C        12.2589698634        6.6065149150       20.9469938433
  H        17.7598961269       16.6935830223       -5.4792385476
  H        18.1598140908       18.0832000370       -6.2971097095
  H        17.4691033892       18.2578870025       -4.7725949606
  H         6.0200888995       14.5770613838       10.9026487194
  H         5.1156132073       13.3617355029        9.8427694511
  H         6.3513925767       12.9898766768       10.7074460176
  H        23.2387694474       16.9795253132       15.6554681872
  H        22.4077426744       18.3746231090       14.8503622770
  H        21.7052254121       17.5192367363       16.0456776307
  C        11.1835826041        8.3522831318       21.9971986916
  N        11.5681198341        7.0699067007       21.9929200787
  O        12.7391815388        5.5129800766       20.8018358853
  S        10.4250911574        9.0634411694       23.4159260637
  C        11.4095249585        6.1811054109       23.1591303996
  H        11.5090286485        5.1512234544       22.9039978538
  H        10.3786382086        6.2140010688       23.6467225092
  C        12.5544720550        6.3291404390       24.1520358538
  H        13.4860645641        6.2216420279       23.6215212936
  H        12.5510365838        5.6204466119       25.0304727416
  H        12.5121310773        7.2753289735       24.5237321098
