352
 i =    75300, time =    75300.000, E =        25.3143873147
  H        11.5927393548        4.6913323911       32.2269260630
  C        10.8674842772        5.4926556416       31.9589476654
  H         9.9889370982        5.0700919104       31.6109735056
  C        11.5685461089        6.3373644639       30.8510028850
  C        10.6294931867        6.1921079422       33.3328457645
  C        11.8923277422        5.6201825101       29.5383946349
  H        10.9060648385        7.2033174921       30.7977171687
  H        12.4785475361        6.6634499934       31.4378612933
  H        10.3961661625        5.5341414634       34.1397214006
  H        11.5661141946        6.6490537408       33.7468891184
  H         9.9633756775        7.0682724651       33.1427730193
  C        10.7351289648        5.0759344987       28.7056187964
  H        12.5698180694        4.8237213010       29.8710711002
  H        12.5149180300        6.3517717119       28.9776447506
  C        10.8429654486        5.6520264091       27.2643615813
  H        10.8799242007        3.9667298664       28.6964988885
  H         9.7896447403        5.3338787991       29.0836413731
  C        10.0139086367        4.9617250944       26.2521426776
  H        11.8839293922        5.5426795527       26.8714459705
  H        10.5355236649        6.6946575069       27.3163277425
  C         8.6692035215        5.7044608103       26.0847872545
  H        10.5879810761        4.8468148874       25.3737808869
  H         9.7704357142        4.0302289158       26.6346410096
  C         7.5294368564        4.8027616047       25.4232719562
  H         8.1914604330        5.9499161165       27.0197349047
  H         8.7235832780        6.5612525564       25.4753590306
  C         7.1654062860        3.4976208116       26.0842525792
  C         7.9885489608        4.0982550472       24.2323988950
  C         6.2077665586        5.6727211913       25.3182558303
  C         7.3265928296        2.3824081649       25.2390201863
  C         6.7270560592        3.1779076966       27.3479946055
  C         7.8536893721        2.7882087311       24.0619111750
  C         8.4637815974        4.8789669203       23.1908658888
  H         5.4631495866        5.0509175103       24.7772670024
  H         6.3855226098        6.5969398840       24.7309012355
  C         5.4540081806        6.0159324406       26.6164374599
  S         6.9101309389        0.9050147259       25.9795393785
  C         6.4855857777        1.8300218517       27.4512447904
  H         6.5603802548        3.9262050209       28.0606875762
  C         8.1546511936        2.3187592732       22.7859153039
  H         8.4367501186        5.9628545079       23.3353647678
  C         8.7021482813        4.4058187650       21.9293064906
  H         6.1109386360        5.8899415497       27.4925414166
  H         5.2728749213        7.0885003280       26.5745733556
  C         4.0973034180        5.2684843370       26.6987071851
  C         5.8177429082        1.2166940137       28.6566130768
  C         8.5582767876        3.1099146009       21.7274994116
  H         7.9108727422        1.2768059266       22.6180447374
  C         9.0673946249        4.8665202617       20.7276271156
  H         4.3492199730        4.2029793386       26.8567577272
  H         3.4248729760        5.2714127388       25.8217168138
  C         3.2438947478        5.8752092869       27.7965261981
  C         5.7717723876       -0.1564330800       28.9522511928
  C         5.3507294472        2.1173940017       29.7143463663
  C         8.8562375333        2.4423735350       20.4266012087
  C         9.1266460113        3.8638507480       19.7909094799
  S         9.3251249325        6.4347880290       20.1342663970
  H         2.8503168712        6.7966480989       27.4689120740
  H         4.0361120486        6.2479691345       28.4604683772
  C         2.1719852582        4.9507417146       28.3794977277
  N         6.2945232705       -1.1710308261       28.1489007247
  C         5.4014186231       -0.6088338931       30.1739264877
  C         4.9663488141        1.7011317874       30.9495623212
  H         5.3296348581        3.1930011132       29.4429281756
  C         7.6492802648        1.7742391269       19.7398461518
  C        10.1231582779        1.5509313488       20.4219523775
  C         9.4842180851        4.3559446980       18.5482660509
  C         9.6846038588        5.7449388082       18.5386852618
  H         1.4751092211        4.5585745084       27.6026461899
  H         2.5577248011        4.0525292643       28.7949595041
  C         1.3132519395        5.6335684534       29.4568797301
  S         6.1397323722       -2.5831534067       28.8741659056
  N         5.4213059620       -2.0244949483       30.2050473074
  C         4.9550843299        0.2436966342       31.2437623208
  H         4.7112073994        2.4148097153       31.7087069026
  H         7.2624964728        0.9123378068       20.3531221257
  H         7.9343149728        1.2745671162       18.8602593565
  C         6.5154510907        2.7714294264       19.5746425240
  H        10.3591281464        1.1454778911       19.4125828884
  H         9.8782508856        0.6363619148       21.0536229618
  C        11.2951819634        2.3429515996       20.9844961580
  H         9.4796812059        3.7700373829       17.6492030543
  C        10.1114827572        6.5255048018       17.2616522405
  H         0.5069193163        6.1788984286       28.9176982143
  H         1.8918832439        6.4630819394       29.8802327109
  C         0.8733264461        4.7631460250       30.6590611435
  C         4.7066162256       -0.3390967612       32.5285054719
  H         6.6240708562        3.4884719375       18.7359218237
  H         6.5844965125        3.3336116427       20.4542587829
  C         5.2574335660        1.9434472465       19.3500121771
  H        11.0079743560        2.8308088403       21.8908288082
  H        11.5826597587        3.0987216713       20.2734282165
  C        12.4765392413        1.5004941835       21.2859192271
  C        10.0802825650        7.8683446797       17.1977501408
  C        10.5816684981        5.7916097454       15.9998090325
  H         0.1296313041        5.3730200835       31.1050582203
  H         0.3957901092        3.8781519816       30.3058361497
  C         2.0910690742        4.4263385133       31.5375204240
  H         4.8546892335       -1.3819291403       32.5975252371
  C         4.3910806898        0.2171491621       33.7545700529
  H         4.3988750519        2.6148250628       19.5130517945
  H         5.1343905991        1.1236385109       20.0610339102
  C         5.1061004426        1.3900554719       17.9922853656
  H        12.1232119376        1.0993266048       22.2561775574
  H        12.5538058077        0.5947073037       20.5698053155
  C        13.6682953884        2.3352008000       21.4923775644
  N         9.8001438005        8.7225566995       18.2344645314
  C        10.3292401253        8.5213026650       15.9847784728
  C        10.7547634718        6.4642348907       14.8536701249
  H        10.6666173013        4.6824550342       15.9653407767
  H         2.7024638329        5.2615302288       31.9025955089
  H         1.7626096438        4.0914013376       32.5246220601
  H         2.7475771388        3.6044138198       31.2003414335
  S         4.1090878508        1.8894503019       34.1208843636
  C         4.3130464796       -0.6988658065       34.9219301546
  H         5.3516245843        2.1609371047       17.2566075385
  H         5.8916814548        0.6301136902       17.8517046649
  C         3.8231684115        0.7112409752       17.5907395725
  H        13.4681657296        3.1453465629       22.1693934197
  H        13.9587681957        2.8921931970       20.5694747892
  C        14.8779380986        1.6980430557       22.0615641853
  S        10.0634078525       10.2176383454       17.7538292893
  N        10.3739367270        9.8964171605       16.2371606674
  C        10.6999736417        7.9370382507       14.7598607075
  H        11.0348998087        5.9661265669       13.9440387298
  C         3.9388637631        1.3361661928       35.8496559685
  N         3.9828754359        0.0074086799       36.0623201274
  O         4.5058752097       -1.8699886908       34.8320848571
  H         3.9460148317        0.1568713425       16.7003152623
  H         3.0919021893        1.4569748913       17.3554213484
  C         3.3159268888       -0.2449589099       18.6560687660
  H        14.6286770509        0.9415335335       22.8179521893
  H        15.4548219490        1.0233513578       21.3866759190
  C        15.8563013249        2.7131714985       22.6115229880
  C        11.0050955611        8.7233661467       13.5577523842
  S         3.3283866082        2.3908055880       37.1988162649
  C         3.8384156218       -0.6912075040       37.3425799660
  H         4.0541891389       -1.0585026792       18.8429310293
  H         3.1445962681        0.3689677762       19.5788603959
  C         1.9306454863       -0.8593290871       18.2901354755
  H        15.3059078872        3.4803839246       23.2245630718
  H        16.3745021573        3.2632646289       21.8708605149
  C        16.8520301650        2.0716070939       23.4941481475
  H        10.7455116788        9.6705148245       13.7167444040
  C        11.4665424511        8.5102333579       12.2618674433
  H         3.0716082096       -0.3001292386       38.0027505200
  H         3.5296264267       -1.6867104675       37.0352301191
  C         5.2819530166       -0.7683348641       37.8501101528
  H         1.1864063415       -0.0223012098       18.1221450960
  H         1.5187128304       -1.4193025899       19.1110968150
  C         1.9884327883       -1.7993633222       17.1087489291
  H        17.0056911619        2.5756387258       24.4717656193
  H        16.4506684728        1.1400374814       23.8198007630
  C        18.0203537484        1.7419063248       22.5681733527
  S        11.7491228572        6.9207820479       11.5716297851
  C        11.6079281501        9.6280623382       11.3544156404
  H         5.2702458480       -0.6950015737       38.9418097007
  H         5.6847913074       -1.7791040712       37.6333852692
  H         5.9552451982        0.0571405677       37.5379635022
  H         3.0215572424       -1.8156213777       16.6857584712
  H         1.2748072060       -1.5732646384       16.3144058669
  H         1.6914020804       -2.8257519175       17.3663943752
  H        18.7263818441        1.0907125498       23.1701017601
  H        18.4969470111        2.6069461150       22.0841299629
  H        17.6569486286        1.1271223793       21.7676884994
  C        12.2165504241        7.7792761243       10.0671040854
  N        12.1705320743        9.1211805500       10.2126086531
  O        11.2932798737       10.7734937142       11.5771913423
  S        12.8321941371        7.0762800101        8.5649998638
  C        12.2771664633       10.0205082091        9.0661116177
  H        12.8778672584       10.9237681805        9.3139701665
  H        12.7379538429        9.6146805209        8.2587230169
  C        10.9565272883       10.4787806377        8.5662249255
  H        10.6577141659       11.4407187720        9.0529982653
  H        11.0220283794       10.5186249289        7.4359923874
  H        10.2091097966        9.6525490433        8.7767029585
  H        20.2408937533       11.5781275472        3.5109110448
  C        20.5644389913       10.5765919164        3.2208444342
  H        19.7759596648        9.8972279426        3.4865154831
  C        21.8870494660       10.1539552968        3.8737102987
  C        20.7881856271       10.4787659065        1.6834703927
  C        22.1065270259       10.1216554533        5.4010671559
  H        22.2237650104        9.2200671262        3.4517936284
  H        22.5829598191       10.7872483635        3.5554140189
  H        19.7724132629       10.5160732261        1.1860596503
  H        21.3035344682        9.5645379469        1.4207753503
  H        21.3647472494       11.4227759337        1.3971133552
  C        21.3214938084        8.9967246289        6.0879747247
  H        23.1344746153       10.0009108170        5.6495660819
  H        21.6964495202       11.0580454756        5.7498655480
  C        20.1490074153        9.5673664887        6.9876336021
  H        22.0164607841        8.3616297050        6.6553276632
  H        20.8075898537        8.4255671545        5.2946326399
  C        18.8468982295        9.9733203793        6.2763656435
  H        20.5832184172       10.3277102669        7.7520524233
  H        19.8326042945        8.6039362000        7.4557428941
  C        17.8092876102       10.3622504608        7.3736289806
  H        19.1062792718       10.8104642409        5.6232588093
  H        18.4786660234        9.1288684203        5.6894188359
  C        16.5579146949       11.1073897684        6.8277531428
  H        18.3028612000       11.0721743241        8.0890288888
  H        17.3740657243        9.5053312430        7.7721496673
  C        16.9157344963       12.4238053819        6.1463347118
  C        16.0757525828       11.8776746562        8.0097342136
  C        15.4113246535       10.3434584121        6.0433493859
  C        16.6746996846       13.5550942390        6.9439852087
  C        17.4603000324       12.7034779037        4.8870691360
  C        16.1607146812       13.2154660067        8.1620456673
  C        15.4966595756       11.1866992875        9.0822941561
  H        15.8594882529       10.0740710381        5.0787632781
  H        15.0645397598        9.5107713138        6.5376798115
  C        14.1758075225       11.2530779369        5.7738341930
  S        17.1449252468       15.0029962620        6.1678243811
  C        17.6343615101       14.0588425391        4.7312020375
  H        17.6397060220       11.9864664809        4.1281319807
  C        15.8104969130       13.7614539724        9.3079053055
  H        15.5206921341       10.1595827716        9.0794172264
  C        15.1674884042       11.7622395733       10.2602010293
  H        14.4130928726       12.1514438701        5.2335974356
  H        13.8059504030       11.6081532547        6.7445336381
  C        13.0167684681       10.5184147965        5.1031213074
  C        17.9789677376       14.6467750677        3.3756907343
  C        15.3435505845       13.1162397405       10.4240448575
  H        15.9434400980       14.8338253284        9.5005991778
  C        14.7190022071       11.3759559707       11.5323762188
  H        12.0149589614       11.0836471026        5.1896252858
  H        12.8404332110        9.5856080393        5.6524640493
  C        13.3306423886       10.3856121076        3.6217040390
  C        18.0387740284       16.0654875352        3.1908503735
  C        18.3094995678       13.8025068951        2.2713219844
  C        15.0281193299       13.7926970578       11.7327781609
  C        14.7447937280       12.4023171627       12.4157059927
  S        14.5720468665        9.8466633905       12.2737998439
  H        14.0603181001        9.5639028783        3.4494393005
  H        13.8386903289       11.2928839144        3.3084541985
  C        12.0924393481       10.2806699969        2.8071349785
  N        17.6655736867       17.0055083046        4.1707010120
  C        18.2286679822       16.5508236645        1.9541411208
  C        18.6560607351       14.2862119230        1.0502889983
  H        18.3453900022       12.7339599282        2.3740212206
  C        13.8291825638       14.6505277463       11.8216328818
  C        16.1765614332       14.4833819934       12.4443336387
  C        14.4627935644       11.9753747897       13.6957265982
  C        14.3773340874       10.5792067681       13.8318221232
  H        11.3447081269        9.6769031884        3.3196386390
  H        11.5373068835       11.2117766495        2.7490874433
  C        12.1942497239        9.5001503299        1.5096311251
  S        17.8766898942       18.4782173200        3.4769388637
  N        18.1682470249       17.9602502608        1.9324807922
  C        18.6213270800       15.7838868103        0.8426586210
  H        19.0408185492       13.6216209543        0.2728154342
  H        13.9706331869       15.4818864436       11.1047465260
  H        13.7543487110       14.9393659456       12.8456588215
  C        12.4855347486       13.9990635348       11.3807614770
  H        16.3849805589       15.2621605158       11.8461509547
  H        15.9096402846       15.0497135788       13.3755700001
  C        17.4157339350       13.6525893054       12.7240477816
  H        14.5721550896       12.6773225653       14.5094875341
  C        14.0949051336        9.7496057161       15.0348360117
  H        11.2265413871        9.4391121800        1.0014776868
  H        12.4621482849        8.4714052627        1.7561500542
  C        13.3308456930       10.1410747770        0.6080126657
  C        18.8495238007       16.4986470062       -0.3522642576
  H        12.5375356752       13.7923962683       10.3059128030
  H        12.2198670770       13.0357706327       11.8192701589
  C        11.3772562536       14.8969360359       11.5601938377
  H        17.6878072782       13.2553303201       11.7212298034
  H        17.1908280601       12.8680304349       13.4420161116
  C        18.6239381438       14.4756927293       13.1715973582
  C        14.0819689875        8.3370364792       15.1400855553
  C        13.8414259901       10.4191500323       16.3421287072
  H        13.9558983377       10.9567002240        1.0239249020
  H        14.0885567927        9.4256210307        0.6928536125
  C        12.7802193286       10.4182656086       -0.8363206514
  H        18.8114606181       17.5627618931       -0.2410136830
  C        19.1875219760       16.1010021560       -1.6305749098
  H        11.4609651175       15.6464281264       10.8274951941
  H        11.3283245054       15.3762777540       12.5256480902
  C        10.0580712533       14.1525515490       11.4062144387
  H        18.9476929204       15.1621482900       12.3806808733
  H        18.3557993889       15.1690917794       14.0228497124
  C        19.6855462983       13.6558130868       13.7987057611
  N        14.3296717620        7.4628027051       14.0056222260
  C        13.6943321520        7.5918025433       16.2667703128
  C        13.6280877728        9.6613344972       17.4912178080
  H        13.8261116808       11.4762070557       16.3412441093
  H        12.7918380081        9.4947764191       -1.4866487951
  H        13.3702079266       11.0836541292       -1.3969065378
  H        11.7682008881       10.8395807943       -0.6990127899
  S        19.3841052029       14.4949635666       -2.1546909623
  C        19.3107165071       17.1718037180       -2.6279551328
  H        10.2235159144       13.0665016579       11.2360119550
  H         9.7206669961       14.1858592323       12.4103534998
  C         9.0066260048       14.6723977339       10.4308042478
  H        20.1173788562       12.9849973611       13.1059604037
  H        19.2430959474       12.9392562514       14.5106368081
  C        20.8015220586       14.3896426864       14.5062123571
  S        14.2904483849        5.9148355282       14.5319502216
  N        13.5630422590        6.2183121745       15.9997973107
  C        13.4710697615        8.1902741063       17.4951169649
  H        13.6152611918       10.1205515274       18.4493309659
  C        19.5478522360       15.2409154587       -3.7053978534
  N        19.5002254220       16.6134322636       -3.8162251909
  O        19.1361546433       18.3491463384       -2.4287690310
  H         8.3722518814       15.4080207846       10.9590314318
  H         9.4047699116       15.2158463775        9.6102388531
  C         8.1969898982       13.5297747130        9.7959267170
  H        20.2725402765       15.1291962009       15.1859631341
  H        21.3116227738       13.6559838856       15.2127464180
  C        21.8146611494       15.0854177094       13.6773519084
  C        13.2266007897        7.4230500561       18.6947345660
  S        20.1375967537       14.2913637157       -5.0928306041
  C        19.4079753555       17.3198881414       -5.1018132913
  H         8.6613337013       13.0328756467        8.9517684240
  H         8.0571118779       12.7108401578       10.5481240602
  C         6.7945749021       14.0007440989        9.2188382159
  H        21.4530325132       15.4573508753       12.7311961754
  H        22.5424250485       14.2647749038       13.5379186351
  C        22.3138323753       16.3261976306       14.4466335123
  H        13.4454001231        6.3792888154       18.5288487275
  C        12.7282751053        7.6567315248       19.9514212670
  H        19.9773838245       16.7477297583       -5.8361175511
  H        19.7817758032       18.3101459668       -5.0196218907
  C        17.9720803876       17.4018873912       -5.4832073081
  H         6.5685817835       13.3850546959        8.3602429589
  H         6.9450237039       15.0244040983        8.9372345741
  C         5.6614931043       13.8777673646       10.1467392897
  H        22.6492482432       16.0235115929       15.4063035828
  H        23.1874990086       16.7349091424       14.0156068799
  C        21.2688348540       17.4377094351       14.6365001435
  S        12.2899569567        9.2259865632       20.5839689758
  C        12.6186633457        6.5095070512       20.8959071602
  H        17.7317831177       16.3691242351       -5.7208085868
  H        17.8191082317       18.0506632196       -6.3336696138
  H        17.3386292539       17.8581367047       -4.7185836502
  H         5.4746504150       12.8710875387       10.4762566160
  H         5.7216218892       14.3543450729       11.1495568837
  H         4.7245319149       14.2787127931        9.7830800996
  H        21.6971143468       18.4569629362       14.6841205534
  H        20.5623888445       17.3349719879       13.8525252893
  H        20.6804406857       17.2234528622       15.5208553348
  C        11.9735098607        8.3564290317       22.0128400577
  N        12.1618852117        7.0374643299       22.0527405884
  O        13.0525817757        5.3712514524       20.6612964158
  S        11.3477488923        9.2676958118       23.4019064807
  C        12.0942885149        6.2198384397       23.3320453816
  H        11.9156291514        5.1532024062       23.0486989558
  H        11.2788060390        6.5575082159       23.8961034471
  C        13.4658244028        6.4949266967       24.0895126802
  H        13.6570684844        7.5628840922       23.9310527416
  H        14.1378963010        5.7279761983       23.7191518976
  H        13.2949390083        6.4329406177       25.1589829394
