352
 i =    10700, time =    10700.000, E =        24.2741565329
  H        12.1622239383        6.7382723161       32.6010826115
  C        11.7751028998        5.7513173565       32.4708523149
  H        12.6072652535        5.3627666891       31.8892362581
  C        10.5413956665        5.6450406423       31.6566959740
  C        11.5279587471        5.1041476962       33.8351732394
  C        10.5208848366        6.1758452993       30.2233376582
  H        10.1439138890        4.7261205297       31.6823316737
  H         9.8445342071        6.2249951592       32.2650581165
  H        11.3577071269        5.9170378624       34.5285314755
  H        10.7668202109        4.3301771875       33.9839974396
  H        12.3972937721        4.4950784212       34.1897112778
  C        10.3491319246        5.0743202056       29.1763083533
  H        11.4225448384        6.7649992694       29.9979618920
  H         9.6514762142        6.7616116807       30.0368645744
  C        10.7629362685        5.4869670132       27.7547510076
  H        10.9650187480        4.2316307870       29.4984180195
  H         9.3348076430        4.6423891069       29.1882452480
  C         9.8612695223        4.8964042296       26.7571940805
  H        11.8045246976        5.1552746774       27.5903876451
  H        10.8947312072        6.5196499730       27.4872499771
  C         8.5972293477        5.7448575406       26.6067711000
  H        10.3771524006        4.7950316623       25.8039774434
  H         9.6025527346        3.9126876969       27.0546266142
  C         7.4536693764        5.1546918387       25.7573974713
  H         8.2932103649        6.1398858641       27.5924669207
  H         8.9156959889        6.6578961924       26.0505422056
  C         7.0187986169        3.7761384635       26.3752834489
  C         7.8787490945        4.4635521013       24.4550011318
  C         6.3022385138        6.2636599902       25.6082952932
  C         7.3242888204        2.7065276566       25.5516084925
  C         6.4949996735        3.4155531951       27.6204329631
  C         7.8281274353        3.1160356770       24.3522277489
  C         8.1026221370        5.1460022556       23.2466381660
  H         6.6985013002        6.9811009804       24.8993345501
  H         6.2812780860        6.7604078917       26.6076836762
  C         4.9417770722        5.6822728862       25.1016015167
  S         6.8745272630        1.2389695249       26.3212432461
  C         6.3337146791        2.0796301152       27.7634124572
  H         6.1818090825        4.2086209083       28.2494642653
  C         8.1056378549        2.5530825680       23.1081436148
  H         8.0909571452        6.2151526009       23.2370577132
  C         8.3617669048        4.5842401989       22.0427448592
  H         5.0559594528        5.3267867728       24.0348433340
  H         4.7105299101        4.7689791637       25.6119975240
  C         3.7374818259        6.5741257745       25.2688435595
  C         5.9071510055        1.4324148843       29.0221500111
  C         8.3655929157        3.2568799596       21.9203898168
  H         8.1733225024        1.4691159633       23.1407688674
  C         8.7538522719        5.0720720785       20.7863109854
  H         2.8759607116        6.0867377877       24.7073431026
  H         3.9036826489        7.5327280642       24.9375081065
  C         3.0705072963        6.6241795016       26.6712860686
  C         5.9309100078        0.0542124321       29.2967903795
  C         5.4957795015        2.2358304170       30.1620292984
  C         8.7741615951        2.6257384022       20.6055559931
  C         9.0013860587        4.0044277734       19.9758149087
  S         9.0855994647        6.5267335639       20.0442360086
  H         2.4293439606        7.4883970345       26.7450160177
  H         3.8161274448        6.6857137560       27.4049416745
  C         2.2130088774        5.3309986346       26.8841017015
  N         6.1468118797       -0.8923096508       28.2649056355
  C         5.5177919252       -0.4999987034       30.5179564563
  C         5.1144573032        1.6937839677       31.4239164743
  H         5.4330813344        3.3572978182       30.1677794741
  C         7.6613616276        1.8258215062       19.8710708447
  C        10.0979915347        1.8249535234       20.6395286730
  C         9.3387723294        4.3655939239       18.6458530644
  C         9.5379440552        5.7580506035       18.5366815723
  H         1.3575227105        5.3889377154       26.1682520505
  H         2.8336482456        4.4960469781       26.9481909851
  C         1.4717713479        5.4714973109       28.1143797128
  S         5.9382207531       -2.3283303277       28.9069718418
  N         5.5157024784       -1.9089791004       30.4184358773
  C         5.1146731269        0.2480124017       31.6460753259
  H         4.8100994566        2.3146140196       32.2020379836
  H         7.4051496790        0.9119423577       20.3881228626
  H         8.0031169291        1.5359003795       18.8571988168
  C         6.3175234854        2.5554444220       19.5786919542
  H        10.4079182126        1.4986208777       19.6749923299
  H         9.9371672260        0.8571382219       21.1208597756
  C        11.2596384237        2.4378072438       21.3165710517
  H         9.4114084471        3.6318809334       17.8726181561
  C         9.9782701422        6.4694181553       17.2728128316
  H         0.6472692753        4.6803598696       28.0842145812
  H         1.0601447898        6.5424632864       28.3032679395
  C         2.3125591203        5.2288755445       29.3872193708
  C         4.8841753831       -0.4073151106       32.9038104767
  H         6.4320003921        3.5233473550       19.1149147857
  H         5.8534905175        2.6776935858       20.5882905872
  C         5.3728091613        1.7001390930       18.7830602264
  H        11.0074833422        2.7646095117       22.2981838911
  H        11.5981794712        3.3681633508       20.7058248532
  C        12.3915948253        1.4381573000       21.3690981929
  C        10.1537682059        7.8522289079       17.1407278041
  C        10.3341288268        5.7422035335       16.0188297813
  H         2.9179741276        4.2431944989       29.2869088522
  H         2.9588431782        6.0228520805       29.6085690759
  C         1.3328589006        5.1192689051       30.5594983850
  H         5.0122068933       -1.4431718206       32.9368529163
  C         4.6282029945        0.0446491264       34.1613614781
  H         5.6513778295        0.6506136740       19.0488287239
  H         5.5990296092        1.8087036856       17.6887274560
  C         3.9422512717        1.9560459152       19.2462107799
  H        12.3458060742        0.8296199762       22.2357289253
  H        12.3499619961        0.7423362355       20.5306307863
  C        13.7856467604        2.0772842657       21.3933783318
  N         9.8588158888        8.7292845149       18.1582316250
  C        10.6239253971        8.4847905298       16.0049010715
  C        10.6480175703        6.3390534908       14.8077932530
  H        10.2008179025        4.6302973570       16.1487811370
  H         0.9322897682        6.0627576932       30.7801325048
  H         0.5660392093        4.4245633742       30.3066975456
  H         1.8243347863        4.7071677677       31.4099033775
  S         4.3238087649        1.6347819160       34.6311336690
  C         4.4527316019       -1.0387867191       35.1596991393
  H         3.7924642565        1.1790466553       20.0110448167
  H         3.6913965882        2.9610204567       19.6442239678
  C         2.9252970479        1.7785884908       18.0965866772
  H        13.6348672180        2.9673799336       20.8331385259
  H        14.4893007466        1.4032968983       20.8605490944
  C        14.2739431448        2.5926912486       22.6912007437
  S        10.2161471946       10.2163075438       17.6604520567
  N        10.6479687254        9.8809707837       16.1325869589
  C        10.9364435673        7.8229815658       14.7882593708
  H        11.0705265627        5.6920246571       14.0339228273
  C         3.9689821434        0.8504786211       36.2058561283
  N         4.0704109299       -0.4898656184       36.3032506293
  O         4.6243699706       -2.2304073068       34.9013951637
  H         3.1394264348        2.4494464389       17.2464537666
  H         1.9153328522        2.0150469212       18.3333379023
  C         2.9496507015        0.4211729278       17.4647591925
  H        14.8935756976        3.4698923717       22.5447520764
  H        13.4496618478        2.8861000734       23.3819818010
  C        15.0290700648        1.4467698219       23.4442008372
  C        11.2728730701        8.5817894560       13.6673654035
  S         3.7423493782        1.6757632381       37.8167724283
  C         3.9829720466       -1.1803979413       37.5616560562
  H         2.1851234680        0.2675861509       16.7486211483
  H         3.8042388205        0.3655439636       16.8275581218
  C         2.6339124321       -0.7243731602       18.4352415537
  H        15.1908264810        0.6552173552       22.7509681815
  H        14.4512931919        0.8875616729       24.1563558088
  C        16.3339581835        1.9001726420       24.1828779563
  H        11.3070747678        9.6050778107       13.8257086728
  C        11.6312415311        8.2227658575       12.3888525722
  H         3.2515446204       -0.8473844454       38.2838785666
  H         3.6395369814       -2.2139171258       37.3886555012
  C         5.3716037142       -1.2998623279       38.2164399749
  H         3.3643654220       -0.7915672690       19.2181479111
  H         2.5744608339       -1.6522587251       17.8593301862
  C         1.3260762548       -0.5837653603       19.1777101901
  H        16.1788296083        2.8993205012       24.6231616829
  H        16.6737796418        1.1363454938       24.9123230179
  C        17.4855554624        1.9507062256       23.1827756199
  S        12.0719507903        6.6751738638       11.9527485976
  C        11.6795431125        9.2879551845       11.3900551074
  H         5.5057967671       -0.3415326623       38.7425374451
  H         5.5682131140       -2.1627771168       38.9323355606
  H         6.2030371676       -1.2952799997       37.5198067274
  H         1.2451424516       -1.3491490967       20.0134441807
  H         0.4816054256       -0.8053972503       18.4630909735
  H         1.1156621659        0.3485467952       19.7396445230
  H        18.3746139170        2.4821741627       23.4985436184
  H        17.0985664239        2.3073301807       22.2396441814
  H        17.8039507233        0.9482254891       23.0295728047
  C        12.1937631371        7.3817626820       10.3196277884
  N        12.0454884669        8.7596829663       10.2270352505
  O        11.2258714818       10.4158821322       11.5269625931
  S        12.8748759050        6.6149720487        8.8841248671
  C        11.8832341211        9.6874538128        9.0903650192
  H        12.4078056486       10.6558687336        9.2104480175
  H        12.4480443477        9.3801693770        8.3259192768
  C        10.4566883953        9.7257362769        8.6148019616
  H        10.4181682701        9.5060891273        7.5501146091
  H         9.8111587185        9.0579825656        9.2338308481
  H        10.1322560397       10.7807673997        8.6934401387
  H        20.7948155873       11.6966567811        3.7358081989
  C        20.9716117752       10.6437513888        3.7508130121
  H        20.0483848000       10.1057951654        4.0583281763
  C        22.1881270851       10.1557686972        4.6592930638
  C        21.3470740811       10.3107327205        2.2539115759
  C        21.8941018545       10.5537308032        6.0843616794
  H        22.3851147094        9.0449095241        4.6524637941
  H        23.0872426921       10.6450466109        4.4125199203
  H        22.4208251973       10.5257529939        1.9889955453
  H        20.6606217818       10.7343624924        1.5759606150
  H        21.3730944868        9.2157922559        2.0843217395
  C        21.2437562185        9.4212248831        6.8113132043
  H        22.8308866930       10.8930983132        6.5369299062
  H        21.2153159568       11.4551089833        6.1205626328
  C        20.4628817947        9.6782153977        8.0432917129
  H        21.9899704015        8.6537629190        7.0638315519
  H        20.7042779790        8.8408417784        6.0733988308
  C        19.2130235116       10.6239895043        7.8516276431
  H        21.1844662717       10.1001757377        8.8173318330
  H        20.1015248190        8.8768188637        8.5753524371
  C        17.9475916316        9.7587396114        7.3528175424
  H        19.0202865781       11.0807609370        8.8527316928
  H        19.3878550953       11.4974560280        7.2522328771
  C        16.6130323588       10.5913259765        7.2396649708
  H        17.7149608558        8.8835745396        7.9366129142
  H        18.1821614756        9.2983385426        6.4415676631
  C        16.9717585345       11.9198876768        6.5437223903
  C        16.1626878027       11.3193392201        8.4450177988
  C        15.4143814782        9.8402012051        6.6119517318
  C        16.7591555701       13.0608822810        7.2824617580
  C        17.5745223158       12.2253722284        5.3170120171
  C        16.2464990809       12.6681791420        8.4979867179
  C        15.6509267246       10.6925890919        9.5480214954
  H        15.8435235577        9.4287647674        5.6778867263
  H        15.0459450027        8.9615274612        7.2164953241
  C        14.2673062081       10.7035673016        6.2318504989
  S        17.1435602650       14.5251152693        6.4724264823
  C        17.6456187185       13.5889363316        5.1068749474
  H        17.9171994311       11.4434589888        4.6169484177
  C        15.9418857106       13.3425754751        9.6851738382
  H        15.6251213356        9.6170705343        9.3645839011
  C        15.2812425659       11.3216969759       10.6513929443
  H        14.5112987940       11.6623815786        5.8994050939
  H        13.6781692001       10.8157268512        7.1772002593
  C        13.3579790443        9.9901958213        5.2884652704
  C        18.1380906250       14.1960134012        3.8564156092
  C        15.3959020031       12.6964043938       10.8080880804
  H        16.0546305867       14.4432356947        9.7323489834
  C        14.8670743065       10.9767610752       11.9035482720
  H        12.3326346573       10.4225975621        5.2925790707
  H        13.1358355438        8.9806683548        5.6790223282
  C        13.9246365875       10.2880155234        3.8597167719
  C        18.2606930251       15.6309022521        3.6458917581
  C        18.5564023789       13.3607966494        2.7040767419
  C        14.9819194449       13.4189144426       12.0287371313
  C        14.7717170989       12.0856933729       12.7001250621
  S        14.6002860799        9.4665105814       12.7205535242
  H        14.8951948176        9.9261795900        3.5968155277
  H        13.8748170404       11.3638639431        3.8463380211
  C        12.9916496505        9.7804423062        2.7551387744
  N        18.1137901821       16.6263039727        4.6370818764
  C        18.5560689133       16.1843110334        2.4461632540
  C        18.8791477724       13.9031301303        1.4881059534
  H        18.5275389172       12.3443480755        2.7532613233
  C        13.6865994167       14.2294683672       11.7287638153
  C        16.0208817880       14.3930840620       12.6992427255
  C        14.4929393103       11.6980843626       14.0255813477
  C        14.3429403702       10.3631024362       14.1894759074
  H        12.8205214073        8.6932194613        2.8928040772
  H        12.0260091353       10.2711141559        2.9254478467
  C        13.6295192998       10.1778561015        1.4651873291
  S        18.2874537482       18.0943174158        3.9499081565
  N        18.5875381631       17.5322348805        2.4283206918
  C        18.7944995287       15.3633693575        1.3134781304
  H        19.1267840552       13.2846228628        0.6509579971
  H        13.8570551606       14.9984493606       10.9680462214
  H        13.3932813246       14.7632420315       12.6158715360
  C        12.5137796234       13.2934071234       11.4210829802
  H        16.2189494105       15.2183029637       11.9860423287
  H        15.6675256919       14.8756119699       13.5227584437
  C        17.3602454129       13.7972937941       13.1107878821
  H        14.3845215979       12.5183767937       14.7599086997
  C        14.0379821914        9.6588597774       15.4571572166
  H        14.6410560884        9.7498277233        1.3559468342
  H        13.8071994463       11.2495279530        1.5062765522
  C        12.8291446190        9.7124939757        0.2548885189
  C        18.9743743312       16.0163184226        0.0181673365
  H        12.8170144983       12.5985445529       10.6685721924
  H        12.2369085711       12.7365023610       12.2767213951
  C        11.4055410741       14.2579350665       10.9458401455
  H        17.8329537879       13.2414065794       12.3145911113
  H        17.0582375613       13.0160853074       13.7745239813
  C        18.2707840221       14.6973550242       13.9050238783
  C        14.0160751357        8.2366606974       15.5797043358
  C        13.8456484360       10.3978451365       16.7424816248
  H        12.8385015921        8.6385672372        0.2282949651
  H        11.7816318189       10.0928278299        0.4474255529
  C        13.2571675607       10.3644803255       -1.0510746884
  H        18.9953170779       17.0665029023        0.1670101002
  C        19.3579808027       15.6141386250       -1.2609652861
  H        11.6099897958       14.6967756888        9.9520967212
  H        11.4716395918       15.0259045779       11.6924840288
  C         9.9969382621       13.7506115394       11.0842346838
  H        18.2927984107       15.6214015256       13.3283777756
  H        17.7633226081       14.9843063312       14.8415557453
  C        19.6019794024       14.0858227168       14.1540105006
  N        14.4053138722        7.3085057029       14.5222539907
  C        13.5761963371        7.6031655619       16.7439674311
  C        13.5808350800        9.7648162304       17.9271304374
  H        13.8545091777       11.5141647719       16.7839434609
  H        12.5127170444       10.0276777051       -1.8238879278
  H        14.1791070275        9.7650494168       -1.2942990797
  H        13.3942283301       11.4670765135       -1.1952745350
  S        19.8177476908       14.0179989027       -1.7316953600
  C        19.4478191114       16.6812743558       -2.2913804368
  H        10.1117824538       12.7226656965       11.5452427461
  H         9.4142629931       14.4520187625       11.6892004003
  C         9.3859649168       13.7138280236        9.6461773548
  H        19.6222601864       13.2008254539       13.5822159422
  H        19.5362680991       13.8708977421       15.2565305532
  C        20.7792594655       15.0047051483       13.8393148713
  S        14.4282430315        5.7567468493       15.2017906145
  N        13.7509422857        6.1958382669       16.6281302985
  C        13.2888349379        8.2707429647       17.9569125395
  H        13.5381584379       10.3038057199       18.8886252012
  C        20.0662961489       14.7178600107       -3.3826754718
  N        19.8288766849       16.0771005226       -3.4760921580
  O        19.3603908980       17.8568714807       -2.0932765201
  H         9.3858814027       14.6933123653        9.1075908828
  H        10.0986473632       13.1130063188        9.0514199762
  C         7.9912721741       12.9713075481        9.4652135119
  H        21.5729884540       14.2867262031       13.4263143826
  H        20.4226848242       15.6216524017       13.0159597661
  C        21.2870008845       15.8287754032       14.9886536561
  C        13.0308089979        7.4392067996       19.1404184288
  S        20.3202723152       13.8620266441       -4.9166631614
  C        19.7376686427       16.9087199137       -4.7036502131
  H         7.7976170423       12.5227367308        8.5036899494
  H         7.9122015025       12.1268901421       10.2121977380
  C         6.8118580025       13.9080259898        9.6776759929
  H        21.7255882327       15.1264230771       15.6333700503
  H        20.5135015948       16.3101944812       15.6466607893
  C        22.4256630120       16.8356277146       14.7040765980
  H        13.3023575135        6.3717100817       19.0215913483
  C        12.5480852047        7.7188629835       20.3898596514
  H        20.4100963219       16.4745259287       -5.4767200322
  H        20.2042275945       17.8459804554       -4.3891645669
  C        18.2889278193       16.9681869915       -5.2285643542
  H         6.7127458044       14.5613883162        8.7966358032
  H         6.9253459055       14.5156154701       10.5579515538
  C         5.5020463127       13.0851934785        9.7673340772
  H        23.1603218443       16.7102610984       15.5157353090
  H        22.8938678638       16.7233690054       13.7634639851
  C        21.8526263798       18.2459301930       14.6688232955
  S        12.1008364133        9.2509198428       20.9952862239
  C        12.5021171546        6.5769782315       21.3149918310
  H        18.1959981880       17.4047440639       -6.2409024891
  H        17.5972772776       17.5192207791       -4.4750911954
  H        17.8151943418       15.9661405876       -5.2041164807
  H         5.1735804848       12.8760233828        8.8034214247
  H         5.6940329805       12.1084409744       10.2677770355
  H         4.7483477061       13.5579609075       10.3381324931
  H        21.5963433345       18.4402887154       15.6888161037
  H        22.5407785249       18.9996453851       14.2550670958
  H        21.0059510578       18.2463291670       13.9998693379
  C        11.7251615964        8.3577167915       22.4807832468
  N        11.8606718381        6.9949235534       22.4245234467
  O        12.6832516012        5.3947139928       21.0231568104
  S        11.0552053544        9.0087560545       23.9652298104
  C        11.7089568992        6.1490953077       23.6016994825
  H        11.6756423581        5.1082646371       23.2980784067
  H        10.7530424539        6.2815411053       24.1538535123
  C        13.0182707143        6.1795665116       24.4792425951
  H        13.8758549600        6.3294324745       23.8293118533
  H        13.1242111649        5.2428937204       25.0991607223
  H        13.0221957597        7.0099754046       25.2066443199
