352
 i =    33200, time =    33200.000, E =        25.1452671933
  H        12.5929979973        7.1851236731       32.0544165084
  C        11.9382303052        6.2431991889       32.1172077095
  H        12.5898465631        5.4137319462       31.9378814553
  C        10.7418487561        6.2712244227       31.1251869399
  C        11.4554392684        6.0089933325       33.5725875239
  C        11.2382135247        6.0015623645       29.7381596921
  H         9.9936658018        5.5826142532       31.3803185033
  H        10.3703663869        7.3527074292       31.1057011026
  H        10.7863498952        5.2008311721       33.5069214826
  H        12.1301126156        5.6769613644       34.3417523462
  H        10.9899252410        6.8418700808       34.1296557297
  C        10.0522881571        6.0780495579       28.6861317831
  H        11.5776106843        4.9683100522       29.8031916923
  H        12.0582588746        6.6342016677       29.3272433144
  C        10.6595400530        6.1582171115       27.2625243572
  H         9.3515151022        5.1914979878       28.7291813835
  H         9.3863255595        6.8830915114       28.9454546370
  C         9.7401216932        5.4697530020       26.2432627728
  H        11.6498057156        5.7142550874       27.3754453741
  H        10.8614516846        7.2333375152       26.9704376287
  C         8.5515065333        6.3141538880       25.8118606309
  H        10.3295652848        5.2087031869       25.3496507132
  H         9.5077613446        4.5097373093       26.6885316001
  C         7.4889928624        5.5189570820       25.1006381271
  H         8.0600898874        6.8851975158       26.6301182817
  H         8.9156690478        7.0996687754       25.1236818737
  C         7.0704594448        4.1711569153       25.7889188103
  C         7.9809656594        4.7457753543       23.9180054834
  C         6.2167830547        6.3980313140       24.9532482553
  C         7.3278113831        3.0454768951       25.0206340442
  C         6.4099113127        3.7621008952       26.9691220266
  C         7.8516947927        3.3991583778       23.7942160969
  C         8.4359531646        5.4227893272       22.7782806541
  H         6.4609045049        7.1457667889       24.1568338646
  H         5.9363618824        6.8540405452       25.8743262566
  C         5.0214531265        5.6357899830       24.3029921450
  S         6.9937462680        1.5810639800       25.8419193324
  C         6.3940775393        2.3949913748       27.1598945130
  H         6.0793746063        4.4979659933       27.6565741378
  C         8.2879742313        2.7824815989       22.6670562997
  H         8.4483717810        6.5060331682       22.9979214370
  C         8.7775583278        4.8254999065       21.5753629310
  H         5.3707355675        5.3189114033       23.3576663747
  H         4.9459861597        4.7517221925       24.8962634827
  C         3.6952076159        6.2947338464       24.1133933311
  C         5.8885576801        1.7286749680       28.3997484339
  C         8.7601304411        3.4369411723       21.5414668094
  H         8.1191257254        1.7231753740       22.5565700601
  C         9.2196534416        5.1943108270       20.4319994757
  H         3.0913670477        5.8025770102       23.3388052515
  H         3.9864912888        7.2662214494       23.7148144272
  C         2.9755756378        6.3453080674       25.5050276141
  C         5.9898968288        0.3363757352       28.6719607271
  C         5.4099864592        2.5250169803       29.5530442284
  C         9.1013645121        2.7688210082       20.2156614216
  C         9.3855622345        4.1283713601       19.6067383921
  S         9.6002228948        6.7099102915       19.6764718907
  H         2.3646928762        7.2461802531       25.3416510484
  H         3.6998550181        6.6574701346       26.2585826803
  C         2.1610071268        5.1090487889       25.8942921268
  N         6.4349155048       -0.6654649606       27.8377501193
  C         5.7346185468       -0.2045388593       29.9195447291
  C         5.1268414386        2.0125925101       30.7907728737
  H         5.1737672102        3.5385966592       29.4255549793
  C         7.9047336385        1.8791444337       19.7120119880
  C        10.4158579393        1.9122755654       20.3008265060
  C         9.7956822384        4.5342611165       18.3366597644
  C         9.8867766753        5.9153940775       18.1768570146
  H         1.5716597169        4.6886255608       25.0538011679
  H         2.7606641602        4.2189392447       26.1979314803
  C         1.1951938843        5.4054386326       26.9558143732
  S         6.2184786725       -2.1141508687       28.5710014714
  N         5.6864302799       -1.5965671644       29.9762622892
  C         5.2845473477        0.5579178372       31.0694219410
  H         4.8089456462        2.6677640188       31.6249670444
  H         7.5473731963        1.3398399488       20.5742859566
  H         8.2544170461        1.2364889401       18.9134824160
  C         6.7078719695        2.7793081451       19.2437245899
  H        10.5662966830        1.6051605265       19.2985691936
  H        10.1345391086        0.9463103604       20.7476276698
  C        11.6678631205        2.5636989837       20.8539673955
  H        10.0172444160        3.8306707952       17.5390659419
  C        10.3541201355        6.5922410014       16.9124887588
  H         0.6196019147        4.4047241250       27.1842338424
  H         0.4304529688        6.0345354268       26.4340556991
  C         1.7438095087        5.9444312533       28.2402051237
  C         5.0735849495       -0.1119333933       32.3247089314
  H         7.2393392612        3.0839590573       18.4157889807
  H         6.6018392514        3.6545978647       19.9296568010
  C         5.5314937340        1.8659567413       18.9436223142
  H        11.4778258289        2.6869677440       21.8597756660
  H        11.7865174679        3.5628928314       20.5287800501
  C        12.8330052293        1.7180989979       20.6251372467
  C        10.6014232799        7.9609105828       16.8515220268
  C        10.4642027247        5.8163392623       15.7235062727
  H         1.7146814676        7.0016495758       28.0315542485
  H         0.9693379516        6.0294490777       28.9986682855
  C         3.1186410976        5.5046901228       28.7976220236
  H         5.2543492769       -1.1541731044       32.3281489318
  C         4.8594911713        0.3582535403       33.5834129105
  H         5.0485515640        1.5700414995       19.8691045058
  H         6.0173603124        0.9513166736       18.4790662140
  C         4.5531352900        2.5509554147       18.0762140616
  H        12.8238940369        0.8603224358       21.3541977974
  H        12.7601057122        1.2463345744       19.6361530241
  C        14.2413687479        2.3770282491       20.5976612118
  N        10.6423789769        8.8953616678       17.8934132650
  C        10.8652300794        8.5522542939       15.6485959939
  C        10.8143531819        6.3289414370       14.5112966972
  H        10.3132362565        4.7640628998       15.7009523258
  H         3.2864721105        4.4971895088       28.5136656905
  H         3.8698084503        6.1547339808       28.3635397060
  H         3.1615627097        5.6280996516       29.8888980273
  S         4.6102049183        1.9658715832       34.0206883640
  C         4.7918192616       -0.6106228316       34.7294116936
  H         4.0651183074        3.4024127210       18.6536584765
  H         5.0742445024        2.9629615746       17.2472180695
  C         3.4180924847        1.5853756482       17.7113054244
  H        14.2730547944        3.2808837403       19.9840765500
  H        14.9346985865        1.6686984693       20.0752902957
  C        14.6758714038        2.9069051581       21.9286093820
  S        10.6665329500       10.3572947523       17.2430633677
  N        11.0420771310        9.9644513466       15.7533187616
  C        10.9838081214        7.8359507998       14.4257799749
  H        11.0097229312        5.6722808481       13.6886569049
  C         4.3433927990        1.2884407261       35.6590915821
  N         4.3947890393       -0.0386186125       35.8351490846
  O         5.0138170765       -1.8332753583       34.4845744519
  H         2.5914194122        2.1408996656       17.2860866995
  H         3.0658794055        1.2053367668       18.6856245280
  C         3.7112683740        0.3941941967       16.8096461842
  H        15.4821044410        3.6481807973       21.8831430891
  H        13.8124000371        3.4749984087       22.3365351372
  C        15.3282516217        1.8211334324       22.8530784974
  C        11.3244564860        8.5844559444       13.1972033522
  S         4.1575993044        2.2992000969       37.0681187923
  C         4.4730653102       -0.7064412351       37.1388901813
  H         3.5167100227        0.7885236829       15.7680775872
  H         4.7696467298        0.0181776082       16.8237117244
  C         2.7696550724       -0.7688256795       17.1985991498
  H        15.6111819031        1.0012045911       22.1698673673
  H        14.5752324328        1.3686070269       23.5395727104
  C        16.4731683943        2.3543159711       23.7189099471
  H        10.9940039498        9.6533767250       13.3015440529
  C        11.8329977833        8.1801250718       11.9749749830
  H         3.9490882442       -0.1698035141       37.9571587921
  H         4.0623219051       -1.7183803545       37.1465493519
  C         5.9317903928       -0.9658285037       37.5758878727
  H         1.7554753421       -0.3681358623       17.0429632055
  H         3.1317659906       -0.9414440379       18.2511810877
  C         3.0129631686       -2.0993676574       16.4619880928
  H        16.1371227010        3.2612874228       24.2258802065
  H        16.7511748643        1.6181486726       24.4595434325
  C        17.7169764296        2.6315323626       22.8605633564
  S        12.4994533527        6.6622331721       11.5611449933
  C        11.9035820663        9.1583685792       10.9555479591
  H         6.3750113234       -0.0738307980       38.0084423497
  H         5.9953184022       -1.7189324617       38.3567282256
  H         6.5000715190       -1.3985933357       36.7136378154
  H         2.3991972870       -2.8476220657       17.0356274442
  H         4.0305741304       -2.4273863356       16.6636367353
  H         2.7736714620       -1.9605711852       15.4061953043
  H        17.6990426099        2.0637794667       21.9520544582
  H        18.6970122809        2.4601816299       23.3503131663
  H        17.7103796263        3.6316238185       22.5338982902
  C        12.8455708098        7.3479367659        9.9279046480
  N        12.4627887462        8.6670218338        9.8421590132
  O        11.6065125734       10.3403955007       11.0436275308
  S        13.5875531693        6.5577458908        8.5675095637
  C        12.4639750123        9.5255115108        8.7008706605
  H        12.8972476209       10.4744267538        8.9535433837
  H        12.9454092376        9.0157930970        7.9235041682
  C        11.0601101873        9.8324303953        8.1562094711
  H        10.9091113863        9.3909738345        7.1099977817
  H        10.2431027630        9.4478295934        8.8029137796
  H        10.9665396946       10.9816624135        8.0590522982
  H        21.4113294097       11.6689064617        4.1860982387
  C        21.7359154283       10.6423316801        4.1321796814
  H        20.9178020791        9.8774322864        4.0312833835
  C        22.6338079944       10.1332666768        5.2899397638
  C        22.4186262873       10.5420227789        2.8025070770
  C        22.1021679180       10.3831650546        6.7307633815
  H        22.6757025646        9.0930997155        5.1488903994
  H        23.6457708283       10.5426576608        5.2050802888
  H        23.1962322175       11.2874002749        2.6615127353
  H        21.7917007614       10.6286445240        1.8184879641
  H        22.8579972161        9.6097653544        2.7191091429
  C        21.0141055390        9.4600086494        7.2456918575
  H        23.0177068565       10.3327809452        7.3466281806
  H        21.8024719379       11.3509123262        6.8098435164
  C        20.1622170508       10.1091642205        8.3458863229
  H        21.4937405053        8.6279523454        7.6961069032
  H        20.3894041758        9.1083655199        6.4341254993
  C        18.9931918609       11.0040725149        7.7897773441
  H        20.7741185764       10.6847172042        9.0587031904
  H        19.8143869981        9.2401443091        8.9842467519
  C        17.7709827620       10.2810474095        7.0989253760
  H        18.7122619856       11.5630637552        8.6767976982
  H        19.3632146224       11.7131531127        7.0422390306
  C        16.5371408986       11.0958149499        6.9728857862
  H        17.4839223511        9.3851380836        7.6532994974
  H        18.0685997046        9.9392050566        6.0549632476
  C        16.9136172095       12.3686797994        6.2306711547
  C        16.2711493606       11.8731606654        8.2310837202
  C        15.3026531062       10.2839535568        6.4383199763
  C        16.8837193214       13.4747641887        7.0173419155
  C        17.3526325735       12.6711645181        4.9309614875
  C        16.5777900798       13.1920318479        8.3721775338
  C        15.8670104694       11.2072106086        9.3956737354
  H        15.6279902577        9.6993765204        5.5578995729
  H        15.0115046956        9.5820037885        7.1625638983
  C        14.0013867135       11.0329005392        6.0670521002
  S        17.4772657051       14.9282879533        6.3010631051
  C        17.7341258714       13.9705950216        4.8220201979
  H        17.3957012906       11.9093475619        4.2409738054
  C        16.3903837598       13.7993029390        9.6004804791
  H        15.6984836786       10.1515471332        9.3655501952
  C        15.7233566261       11.8011186222       10.6439541887
  H        14.2856757731       11.8596990951        5.4298453456
  H        13.4331716246       11.4435018703        6.9032128319
  C        13.1250767481       10.2731633306        5.0550868830
  C        18.1874404502       14.6555005941        3.5321683317
  C        15.9289480256       13.1431753562       10.7575864074
  H        16.6734544416       14.8194428257        9.6946106286
  C        15.4310986642       11.4521805852       11.9241065113
  H        12.1032120959       10.7794222915        5.0949463030
  H        12.8375127843        9.3174783056        5.4506239272
  C        13.7791181520       10.1027961888        3.6424489103
  C        18.2657381762       16.0071255392        3.2860430348
  C        18.3815631218       13.7208410416        2.3463437244
  C        15.6673297156       13.8889362053       12.0248228505
  C        15.3823971744       12.5522797661       12.7193948123
  S        15.0052781193        9.9745182277       12.7106720856
  H        14.2459947301        9.0753920306        3.5371318365
  H        14.5895989163       10.7509699218        3.4920795788
  C        12.7412261716       10.2332729046        2.5198784750
  N        18.0601648147       17.0442568795        4.2200858327
  C        18.5315201350       16.5263445426        2.0397233756
  C        18.8413396611       14.3106038947        1.1900229369
  H        18.5489911882       12.6610318347        2.3583904967
  C        14.3371789360       14.7096447436       11.9765884661
  C        16.8551201071       14.7105128183       12.5189463880
  C        15.0098484219       12.1785696477       14.0687327919
  C        14.8697911596       10.8126851504       14.2129551097
  H        12.1598901485        9.2977914939        2.5966960107
  H        12.1243850896       11.0804380585        2.6989096357
  C        13.4754745233       10.3032077311        1.1887067798
  S        18.2425741334       18.4446351985        3.4658604624
  N        18.6710649933       17.8968467457        2.0559756702
  C        18.7778890243       15.7095311718        0.8989792189
  H        19.0149110201       13.6231703817        0.3846729020
  H        14.5293091112       15.6873187001       11.4797737613
  H        14.0894862590       15.0851713185       12.9993027858
  C        13.2457111478       13.9078203505       11.3475351632
  H        17.1791778671       15.3395967740       11.7413850766
  H        16.5608484097       15.3662198265       13.2717670513
  C        17.9968503713       13.7654091066       12.9510391846
  H        15.0051132847       12.9465899130       14.7805145700
  C        14.5854678106       10.0379747448       15.4365678661
  H        14.3782284098        9.7587238529        1.2939786893
  H        13.6291620226       11.3673545575        0.9110262816
  C        12.6099832496        9.6905119584        0.0895797848
  C        19.0060968961       16.3144920975       -0.3397318084
  H        13.5300548159       13.6629426339       10.3358405633
  H        13.1522578047       12.9931295877       11.8693521479
  C        11.8570441955       14.5447362919       11.2313727931
  H        18.3669361418       13.1231733665       12.1186419662
  H        17.7070146091       13.0309506167       13.6760746897
  C        19.2760138632       14.3891871536       13.4753338812
  C        14.4285415722        8.6052930360       15.4554948082
  C        14.1025802006       10.7040580154       16.6744851227
  H        12.2658198312        8.7463948211        0.4534977600
  H        11.7487467917       10.2656403354       -0.2709818960
  C        13.4181721254        9.4918848066       -1.1905873545
  H        18.9926691636       17.3834415462       -0.3847728181
  C        19.4127085672       15.7328597805       -1.5430760862
  H        11.9263750849       15.3570541229       10.4989258086
  H        11.4261089211       14.9622421836       12.1012068301
  C        10.7340573746       13.5919595987       10.7715507349
  H        19.9379419361       14.8026845203       12.6929020546
  H        19.0867411137       15.2415654801       14.1033286620
  C        20.1719010928       13.4424781089       14.3468361098
  N        14.7713174677        7.6661881481       14.4739503527
  C        13.9403590832        7.9077784436       16.6144473888
  C        13.9010125314       10.0086022176       17.8497343523
  H        14.0434505636       11.7512267774       16.7885820476
  H        14.4284618787        9.7508743106       -0.9831042075
  H        13.0961477170       10.0190204703       -1.9707830175
  H        13.3578357590        8.4605598948       -1.4463839177
  S        19.9007129951       14.0845799590       -1.9353582421
  C        19.3733868409       16.7146004601       -2.6675244522
  H        11.0735406796       12.8895706577       10.0787172023
  H        10.2993189156       13.0041140074       11.6026991476
  C         9.5013643525       14.1936695353       10.1299718097
  H        19.9942536537       12.5459046255       13.7732822616
  H        19.7110127439       13.3426369351       15.3668784854
  C        21.6283861889       13.8920173952       14.2624231178
  S        14.2747362446        6.1660164490       14.9911619084
  N        13.7506482063        6.5348167519       16.4546198766
  C        13.7780173168        8.5164509948       17.8751401861
  H        13.7819742865       10.5969823717       18.7453489934
  C        19.7577462068       14.5846569769       -3.6694987581
  N        19.6835755014       15.9570989615       -3.7890201079
  O        19.1933099494       17.9523491312       -2.6089443648
  H         8.8579883109       14.5729139149       10.9284319830
  H         9.7862628646       14.9073017796        9.3930787344
  C         8.7914919800       13.1293923325        9.2827191173
  H        22.2915170836       13.1896617982       14.7613759052
  H        21.9056859130       13.9559566736       13.1801421710
  C        21.7828107198       15.2548272550       14.9247712002
  C        13.3918104383        7.6000029957       18.9015351069
  S        20.2963867462       13.5900018291       -5.0468043074
  C        19.8153756507       16.5659977226       -5.0873788512
  H         9.4247065654       12.7124079458        8.4871879243
  H         8.5886975463       12.2280729530        9.8309131348
  C         7.4789421401       13.4907710519        8.6138638820
  H        22.4769951095       15.0184542540       15.7238010178
  H        20.9645535019       15.4518992434       15.5454384241
  C        22.1632985992       16.4053747918       13.9642478842
  H        13.7799070548        6.5772153312       18.8251461977
  C        12.7873977442        7.8657907733       20.0992463981
  H        20.6027763502       16.1806297158       -5.7034111134
  H        20.2693208129       17.4981564051       -4.8835782577
  C        18.4803230396       16.6507700874       -5.9227825954
  H         7.1791078817       12.6610277672        8.0173173575
  H         7.5975450898       14.3178081137        7.9013581909
  C         6.2756883068       13.6888090741        9.5729628499
  H        23.2065416101       16.5960810665       14.0311558498
  H        22.0632282814       15.9998918779       12.9815619758
  C        21.4643128922       17.6994879406       14.0989502801
  S        12.1350635268        9.2755556453       20.6923617123
  C        12.7992709726        6.7797807757       21.0231017354
  H        17.7628451791       17.4709816166       -5.7462543548
  H        18.0479572436       15.6971573960       -5.5451584247
  H        18.6307631593       16.6087283708       -7.0273721443
  H         6.5982671736       14.3425268422       10.3030618686
  H         5.4338007581       14.1355389702        9.0019176382
  H         5.9335992714       12.8118913819       10.1371956641
  H        20.7864096446       17.7237177850       14.9747223674
  H        22.1767369233       18.4959111094       14.2920577350
  H        20.8259786712       18.0364713433       13.3107280914
  C        11.8120247127        8.4156737204       22.1745918969
  N        12.0922784263        7.1150450355       22.0988877453
  O        13.3239574092        5.6797497890       20.8461982595
  S        11.1439509969        9.1504247898       23.6612817141
  C        11.7246440264        6.2343986590       23.0854964875
  H        11.6771079431        5.2630278631       22.6054855144
  H        10.7530004869        6.4698138092       23.5609154756
  C        12.8385924995        6.0701312003       24.2193853209
  H        13.8627228243        6.0610357207       23.7915448085
  H        12.6000020421        5.1163406894       24.6934430616
  H        12.6811352438        6.7703619251       24.9879666713
