352
 i =    82300, time =    82300.000, E =        25.3177337374
  H        10.0228810103        6.7356438234       32.0075652272
  C        10.9642421558        6.2869375544       32.2797668608
  H        11.3054803759        7.0962622720       32.9302122881
  C        11.8633811970        5.9617151840       31.1028088441
  C        10.7528437081        5.0867235123       33.2077790392
  C        11.1087465657        5.2716074205       29.9462603499
  H        12.2121205623        6.8247147610       30.6695368705
  H        12.6877586980        5.3065626010       31.3713757551
  H        11.7920944397        4.9334178616       33.5557024382
  H        10.0926853628        5.4921024966       33.9663607449
  H        10.4470637288        4.1334547010       32.7928776647
  C        10.3404490163        6.1901205249       28.9904035817
  H        10.3503037411        4.5557731842       30.1990486446
  H        11.8111924206        4.6515248903       29.3943419574
  C        10.8009522626        6.0994617064       27.5417974990
  H         9.2453282328        5.9318207850       28.9493866129
  H        10.4059301813        7.1715439434       29.1510055771
  C         9.7889900206        5.1972420268       26.6892087465
  H        11.8834226975        5.7989898957       27.5277447242
  H        10.7996579122        7.0467812245       27.0825976504
  C         8.4949837311        5.9567717546       26.2371379898
  H        10.2444558397        4.8850489464       25.7839948671
  H         9.6560416226        4.1964242657       27.1191739503
  C         7.4746230529        5.1839362221       25.5084173524
  H         8.1220736475        6.5099111948       27.1854875491
  H         8.7949075913        6.7503649102       25.5997995708
  C         7.2129669516        3.7720713529       26.0560183444
  C         8.0460745257        4.5367765828       24.2119900014
  C         6.1867354514        6.0438649062       25.2036403884
  C         7.5986385268        2.7376583893       25.2664168868
  C         6.6802348626        3.3352869641       27.2923792135
  C         8.1187754112        3.2028825780       24.0724338687
  C         8.4784406328        5.2093052064       23.0877996362
  H         5.7310495920        5.3471977516       24.4835875824
  H         6.3925865174        6.9820885747       24.6613789190
  C         5.2513651645        6.3945003138       26.3266738405
  S         7.4326606606        1.1816762854       26.0810762885
  C         6.7531068247        1.9666803326       27.4480755087
  H         6.3550892860        4.0626017235       27.9894780946
  C         8.4544742389        2.5623031400       22.9295175208
  H         8.3572245651        6.2690368998       23.1561820826
  C         9.0260322273        4.5602483670       21.9605083074
  H         5.3124714337        5.6402652110       27.1619791988
  H         5.6487779278        7.3390209971       26.6756844975
  C         3.9032442260        6.3107969292       25.7031330087
  C         6.2504832585        1.2200063731       28.6751013040
  C         8.9276062475        3.2742101432       21.8144502877
  H         8.2117019480        1.5028259973       22.7240226716
  C         9.4536172469        5.0004548739       20.7377578798
  H         3.7805620255        5.3339047654       25.2363946964
  H         3.6993201733        7.0321415485       24.9563874859
  C         2.9240818791        6.6735637983       26.8375323251
  C         6.2620702761       -0.1591808740       28.9500027974
  C         5.5620357634        2.0454781698       29.6925599550
  C         9.1594950971        2.5454034985       20.5377057824
  C         9.6236265271        3.8567624625       19.9324729136
  S         9.7279075798        6.4800213673       19.9166153506
  H         2.1902311691        7.4049798320       26.5753894179
  H         3.6438327509        7.0948673819       27.6024680561
  C         2.2383194348        5.4348529897       27.3109793881
  N         6.6069082990       -1.1216172814       27.9864830207
  C         5.8757945030       -0.7206874122       30.1397838983
  C         5.1730361404        1.4697901860       30.9274590655
  H         5.3624437128        3.1374721800       29.4998932102
  C         8.0290973319        1.8229050069       19.7651194541
  C        10.4828798942        1.6225156892       20.7482409571
  C        10.0069466220        4.2449221869       18.6287794462
  C        10.0371113108        5.6037280370       18.4573894603
  H         1.6913596076        4.9224807384       26.5186325079
  H         3.0819487056        4.7324856342       27.5851985985
  C         1.0989391987        5.7436122070       28.3858971932
  S         6.7604419230       -2.5129129831       28.6735398145
  N         6.1918247570       -2.1045329512       30.1711421057
  C         5.5040122906        0.0542224001       31.2349027067
  H         4.7215254449        2.1322702404       31.6458051682
  H         7.7584264303        0.9334845524       20.3367529795
  H         8.4064362239        1.5757081835       18.7724650187
  C         6.7987210580        2.6772545804       19.5937523031
  H        10.6970640469        1.2361104269       19.7134101833
  H        10.1324953044        0.7463935733       21.2755962698
  C        11.6163804819        2.3933984275       21.5872102478
  H        10.2894709253        3.4356059096       17.9422232025
  C        10.2838668630        6.3669707196       17.1622857007
  H         0.1593400620        5.2503599825       28.0187100846
  H         0.8086116661        6.7792742371       28.4617036718
  C         1.4302174967        5.3376603043       29.8450732693
  C         5.2557306802       -0.6186073567       32.4430580631
  H         7.0877965796        3.2298170387       18.6824805976
  H         6.8270395378        3.4768335747       20.3902914986
  C         5.4691436676        2.0294651530       19.4411234180
  H        11.2655342317        2.5094670767       22.5928702757
  H        11.8593648440        3.4312092176       21.1809575388
  C        12.9246782921        1.7043261430       21.5698627228
  C        10.3546378009        7.7436283335       17.0060983041
  C        10.5689478155        5.4868248394       15.9695357561
  H         1.2103112644        6.2284172784       30.4200279586
  H         0.8338753667        4.5043004551       30.2008230198
  C         2.8456699359        5.0086259202       30.2412593259
  H         5.3057373090       -1.6902608151       32.3890597892
  C         4.9036050451       -0.1623796804       33.7237508725
  H         4.8320630147        2.9270887722       19.5312599712
  H         5.3590444188        1.3823141184       20.2891100949
  C         5.2188355358        1.3763383252       18.0964322587
  H        12.8894033979        0.7254141222       22.0471900637
  H        13.1283389348        1.5064564355       20.5376126464
  C        14.1128023009        2.5230887797       22.0624287534
  N        10.2880950539        8.7292445115       17.9740126316
  C        10.7420639610        8.3520699906       15.8672548889
  C        10.8408784126        6.1635794082       14.7886883811
  H        10.6568533010        4.4003692090       16.0196436775
  H         3.0252799360        3.9734382660       29.9387287913
  H         3.6033607932        5.6592243291       29.8063591444
  H         2.8526705274        5.0545534442       31.3121694387
  S         4.5856446021        1.5684695606       34.1481376108
  C         4.9110751237       -1.1574484849       34.8834499504
  H         5.5894097734        1.9183976416       17.2262662253
  H         5.8149167880        0.4685386564       18.0544109078
  C         3.7201129073        1.0563477573       17.9521832243
  H        13.9093378928        3.3570876819       22.7397610411
  H        14.6229447368        2.9657271263       21.1969169344
  C        15.0824860835        1.6325772121       22.7862480786
  S        10.6383046068       10.1397587689       17.3980021153
  N        11.0151984960        9.6901256830       15.9117151837
  C        11.0571024547        7.6241662483       14.7143754719
  H        11.0202799146        5.5605042949       13.9009419814
  C         4.2815924643        0.8608583365       35.7627494106
  N         4.4613480580       -0.4783904282       35.9637904172
  O         5.2853809673       -2.3270245326       34.9177738544
  H         3.4245589385        1.3777690221       16.9569614382
  H         3.0525175767        1.8189524709       18.4774132373
  C         3.4059240462       -0.3273530703       18.4353528674
  H        14.7563403032        1.3401136600       23.7976436082
  H        15.2046190470        0.7025963609       22.2353448938
  C        16.3395404209        2.5002586469       23.0515099643
  C        11.3750362507        8.3839425566       13.5543330543
  S         3.8713085034        1.7802343602       37.2193464368
  C         4.5239750563       -1.0951717511       37.2527680694
  H         4.2379188706       -0.9861466992       18.1698708684
  H         3.4121378969       -0.4569035019       19.5015754343
  C         2.0724814719       -1.0604121728       18.0511750121
  H        16.1153750859        3.0197496632       23.9871037258
  H        16.4629130671        3.2202091166       22.2908150333
  C        17.6322036389        1.7801031911       23.1301163090
  H        11.2681289827        9.4875854738       13.7079634633
  C        11.7574786174        8.1081352673       12.2963182602
  H         3.9705740508       -0.6707465329       38.0621152484
  H         4.1352307811       -2.1240288557       37.1345212381
  C         5.9094347671       -1.2927611119       37.9653993500
  H         1.1352035345       -0.5438151852       18.1690006158
  H         2.0632958175       -1.9702304553       18.5931094674
  C         2.1055271325       -1.2869801515       16.4917976181
  H        18.1111921121        2.0424437216       24.0673000775
  H        17.3891207730        0.7722646016       23.0055700816
  C        18.6707967668        2.1522487739       22.1210725985
  S        12.1100855037        6.5519760298       11.6868354476
  C        11.8944190594        9.2418166875       11.3147829978
  H         6.6656604725       -1.2437301042       37.1927886741
  H         6.0320048305       -0.6667153829       38.7728351197
  H         5.8205681875       -2.2537333957       38.4732546361
  H         2.6876388354       -2.2306178694       16.4630992371
  H         2.6164718580       -0.6302514471       15.8102757586
  H         1.1137527432       -1.4792445981       16.1510025459
  H        18.8378450501        3.2032358421       22.0047512749
  H        18.2732330374        1.8907161668       21.1189479005
  H        19.5968693586        1.6404629550       22.2283186106
  C        12.3741351296        7.3796721001       10.1677311536
  N        12.3810295489        8.7255733134       10.1947244194
  O        11.7822693572       10.4813879465       11.5420196367
  S        13.2004513525        6.6243518117        8.8110808529
  C        12.5742390366        9.6046832576        9.0366975549
  H        12.8536864233       10.5931245434        9.2237769982
  H        13.3643496757        9.1490011091        8.4546433528
  C        11.3378470928        9.6624833810        8.1310772842
  H        10.9248223581       10.6962745657        8.1694579373
  H        11.5213753507        9.2168982519        7.1697683391
  H        10.4559247403        9.0488987847        8.4671471487
  H        20.9214280858       11.8257839700        3.4131729265
  C        21.1724448653       10.8418435934        3.1019231075
  H        20.3442152090       10.1525256294        3.3539382192
  C        22.4202480129       10.3144796554        3.7980352541
  C        21.4057073910       10.6738392415        1.5731949513
  C        22.2493982600       10.5483470740        5.2317904704
  H        22.5053623128        9.2808193023        3.6278391952
  H        23.3835005921       10.7687050375        3.5618149385
  H        22.2996493008       11.2271860502        1.3380345700
  H        20.6315282450       11.0818525106        0.9699228639
  H        21.6402111764        9.6291246874        1.3514845430
  C        21.6722054367        9.3435101952        5.9288658557
  H        23.2329054017       10.7807423094        5.6177149288
  H        21.5462236191       11.4014189183        5.4027728148
  C        20.6689853003        9.7038719828        6.9764796118
  H        22.5393277254        8.7456566337        6.3271463305
  H        21.1531404310        8.7133547548        5.1728663334
  C        19.2608023086        9.5357273598        6.5337621654
  H        20.8985781746       10.5346505050        7.5981465330
  H        20.7733204882        8.9595624409        7.8006902260
  C        18.2423672510       10.0130328317        7.5753896301
  H        19.1968141410       10.2327723385        5.6802720468
  H        18.9992742578        8.5580010585        6.2637076899
  C        17.0187927418       10.8114781601        7.1079293327
  H        18.9070087298       10.6136664883        8.2007785790
  H        18.0061882815        9.2055453267        8.2999714824
  C        17.4249688509       12.1395330150        6.4065505808
  C        16.5863671304       11.5678377089        8.3707895456
  C        15.8718718845       10.0653492181        6.3723632542
  C        17.1979216511       13.2768070816        7.2000225302
  C        17.9014975715       12.4939703915        5.1672770389
  C        16.6962330635       12.9226161644        8.4699741975
  C        16.0129879386       10.8637146782        9.3790464957
  H        16.3693597676        9.6206209967        5.5532636519
  H        15.4035851824        9.2636156510        6.9387440402
  C        14.6860048230       10.9966053324        5.9916396433
  S        17.5538821956       14.7187552089        6.3146780015
  C        17.9398798733       13.8181964906        4.9119512955
  H        17.9262240503       11.7385208970        4.4553642826
  C        16.3620233495       13.5084100481        9.6393368978
  H        15.9162389426        9.7695488273        9.3111161147
  C        15.7645588463       11.4765517046       10.6093959904
  H        15.0550730731       11.9322017198        5.4457612760
  H        14.1045877003       11.4639110243        6.8203107946
  C        13.4831244741       10.4106629482        5.1719663688
  C        18.3443140345       14.5114458465        3.6397186821
  C        15.8642506621       12.8123501345       10.7178410485
  H        16.4552875632       14.6033876703        9.6376791944
  C        15.3242538621       11.0629591392       11.8477653692
  H        12.7576824718       11.1419976986        4.9983061981
  H        13.0772624958        9.5129028005        5.6333953878
  C        13.9911893873       10.0115496224        3.7858092180
  C        18.2296348055       15.8615381140        3.3469175722
  C        18.5890348305       13.6954110314        2.3827048271
  C        15.4989730423       13.4732388581       12.0195168148
  C        15.1613133944       12.1288581098       12.6349413568
  S        15.1284208415        9.5360914821       12.5846954598
  H        14.5227493529        9.0586023241        3.8655378088
  H        14.7565395480       10.7231515448        3.4331660247
  C        12.8332486932        9.9503780056        2.7784958536
  N        17.7781325573       16.8007201158        4.2743575508
  C        18.5954559297       16.4647967699        2.1488818004
  C        18.8034141257       14.2901724906        1.1600849381
  H        18.7801071073       12.5424845636        2.5011636165
  C        14.2543576954       14.4498058615       11.8361636928
  C        16.8091633951       14.1733714336       12.6483568120
  C        14.7266855062       11.7408188586       13.9645683786
  C        14.6797283483       10.3706086485       14.0729657455
  H        12.0531433743        9.2922851385        3.0994891119
  H        12.3345672524       10.9389371280        2.7933851521
  C        13.2906188297        9.5131864713        1.3885756816
  S        18.0165418760       18.2437092250        3.6404996176
  N        18.6183221891       17.8425821982        2.2104079500
  C        18.9586204200       15.7264399749        0.9569237833
  H        19.1052149214       13.6215595684        0.3887907919
  H        14.5593214185       15.2015416433       11.1324454294
  H        13.9604889077       14.9107667368       12.8139941811
  C        13.0255905633       13.7696154914       11.2347092605
  H        17.1556330098       14.9958919793       12.0467254733
  H        16.5212722515       14.6799678026       13.5836960479
  C        17.9767439515       13.1946847617       12.6618975705
  H        14.4620591185       12.5605777344       14.6639399594
  C        14.4574971011        9.6048131865       15.3670279715
  H        12.7196550345        8.5776902753        1.1640506273
  H        14.3452838315        9.1841566091        1.4766741123
  C        13.2467494773       10.5807831397        0.3424944892
  C        19.3877684193       16.3737721530       -0.2610977054
  H        13.2650045383       13.4101573752       10.2803212138
  H        12.6980538277       12.8841383931       11.8273130461
  C        11.7107707335       14.5936546587       11.0639682749
  H        18.2267885514       12.7661918643       11.6965262381
  H        17.7141765285       12.2979485015       13.2190269315
  C        19.2535181633       13.8948733787       13.2660715945
  C        14.3979876043        8.2201363002       15.4911344139
  C        14.3654794377       10.3893430084       16.6206109387
  H        12.3202707327       11.0828667580        0.2529572421
  H        13.9587383696       11.3287318588        0.6258803451
  C        13.6074438342       10.1379743498       -1.0254631938
  H        19.4283446804       17.4236884350       -0.1404727120
  C        19.5921340238       15.8474529231       -1.5221078400
  H        11.8397848209       15.4401271552       10.3478617554
  H        11.4397326493       15.0936997155       12.0635720008
  C        10.5887963700       13.6459640524       10.6047968885
  H        19.9984217593       13.9501599266       12.5156015941
  H        19.0093965615       14.8255999832       13.6786771744
  C        19.8695081777       13.0789198627       14.4378518192
  N        14.6595707819        7.2822049612       14.4712869039
  C        13.9916386978        7.6118703338       16.6892272894
  C        14.1619324791        9.8031517015       17.8716104336
  H        14.4396087325       11.4897751709       16.5169175132
  H        14.6058550483        9.7878505922       -1.1355816336
  H        13.4038406679       10.9440889609       -1.7434224609
  H        12.9810223463        9.2459183489       -1.2313404508
  S        19.4934046264       14.1749280565       -1.9812624342
  C        19.7508922449       16.8592845318       -2.5736970059
  H        11.1149984173       12.9281433954        9.9239442107
  H        10.2885084986       12.9844502990       11.4191400685
  C         9.5339092391       14.3555650767        9.7501661170
  H        19.8364700381       12.0147385572       14.2896190055
  H        19.2776773538       13.2128050034       15.3134944573
  C        21.2971097435       13.4421585140       14.6924091600
  S        14.4611733916        5.7206121617       15.1111935911
  N        13.8886170370        6.2182537614       16.5797155143
  C        13.8484656216        8.3506558489       17.8870104410
  H        14.0543861037       10.3742462598       18.7739590818
  C        19.8440949351       14.8054460894       -3.6056669447
  N        20.0122490085       16.1428673544       -3.6925792853
  O        19.8141171970       18.0836644463       -2.3377854605
  H         8.8943959576       14.9401634755       10.3373868592
  H         9.9299867870       14.8827576562        8.9351237030
  C         8.4757300263       13.3280237316        9.2310326313
  H        21.7568192463       12.7145909584       15.3768360041
  H        21.9215891057       13.2775561660       13.8181936804
  C        21.4939407093       14.9137325353       15.2629322617
  C        13.4925746602        7.6509596098       19.0337023731
  S        20.3114290462       13.7627077423       -4.9607656258
  C        20.3947987264       16.7997346692       -4.9736340657
  H         8.8629192148       12.9890113046        8.2352289572
  H         8.3385357928       12.3915143504        9.8473893539
  C         7.1194025350       13.9283264053        8.9870938184
  H        22.3343799762       15.0118637400       15.8253304467
  H        20.5495251132       15.1250526684       15.7783890172
  C        21.7040262801       15.9151878171       14.1528906325
  H        13.8783410779        6.6772585184       19.1732509386
  C        13.0186620854        8.1111606164       20.2692243054
  H        21.3206158425       16.3775089103       -5.4922951632
  H        20.7715006038       17.6999317063       -4.6682093245
  C        19.1156880701       17.0467872673       -5.7708773577
  H         6.6230355569       13.2782313965        8.2650708544
  H         7.1749185297       14.9410435580        8.4873207371
  C         6.1615545420       13.8355003013       10.2701019621
  H        22.4664798326       15.4201487323       13.5087570709
  H        20.8362643065       16.0053765906       13.5131726528
  C        22.3475469075       17.2636891578       14.7302301576
  S        12.5411195370        9.7665251183       20.7759033754
  C        12.7757199689        7.0646768883       21.2968342247
  H        18.8567552210       18.0471088650       -5.7468627251
  H        18.3094718709       16.4302849867       -5.3331720043
  H        19.2761826169       16.7565710009       -6.7991797973
  H         5.3106897599       13.1997242641       10.1410011383
  H         6.6751082867       13.5213097751       11.1933885972
  H         5.8804124500       14.8030021902       10.6053797902
  H        23.3959001699       16.9295815239       15.1657213017
  H        22.4720716286       17.9906240411       13.8711698076
  H        21.8401970715       17.8262008781       15.5354637507
  C        12.1030181435        9.0569960267       22.3521859110
  N        12.2219297793        7.7004258926       22.3674920677
  O        12.9566068871        5.8519953695       21.2045814092
  S        11.3338035900        9.9050443613       23.6240842541
  C        12.0862336873        6.8849793471       23.5395075154
  H        11.9194963177        5.8404842059       23.3150474374
  H        11.2765757458        7.2544866907       24.1058367143
  C        13.3566571941        7.0080803908       24.2992533626
  H        13.3917800118        6.3833681886       25.1734770147
  H        13.3922804876        7.9824789258       24.7144530573
  H        14.2444718482        6.8835760449       23.6309203254
