352
 i =    26100, time =    26100.000, E =        25.1521389519
  H        12.1715053044        6.7978374125       32.3943354240
  C        11.6615387297        5.7886587067       32.4357575477
  H        12.4908810651        5.2546604897       32.0464490797
  C        10.5188439854        5.5878490421       31.4636419679
  C        11.1725301397        5.4716056828       33.8422696063
  C        10.9699332309        5.8117079370       30.1063374055
  H        10.1618945110        4.6133675286       31.5270829427
  H         9.6534772798        6.2328676811       31.6200868010
  H        10.7162551711        6.3797526958       34.2130511986
  H        10.4773420349        4.6342553918       33.9755534091
  H        11.9932867882        5.4558888670       34.5768400462
  C         9.8548148047        5.8044233678       29.0538461267
  H        11.6573451498        4.9807814339       29.8373735459
  H        11.4966946055        6.7824396810       30.1756477158
  C        10.4154321802        5.9381164024       27.5681144927
  H         9.4223090731        4.7782219627       29.3402933289
  H         8.9951697940        6.5188707783       29.2716969785
  C         9.5018485054        5.3234619736       26.5535617272
  H        11.3347416207        5.4277517663       27.3951511670
  H        10.5148124010        6.9526119420       27.2222753699
  C         8.3914076073        6.2952548156       26.3084289720
  H        10.0756061546        5.1248993942       25.6702999187
  H         9.2254802719        4.3248184712       26.9631132717
  C         7.2243039974        5.5870664523       25.5429678797
  H         7.8926757633        6.5974309670       27.2652827792
  H         8.7802808499        7.1679657085       25.8584407490
  C         6.8047825803        4.2183077143       26.1836224730
  C         7.6098200606        4.8218027176       24.2813846526
  C         5.9829237207        6.4916910820       25.2496415860
  C         6.9476859002        3.1463956297       25.3332667361
  C         6.4475642877        3.7458991516       27.4319163038
  C         7.4551987913        3.5124526864       24.1141067081
  C         8.0304796584        5.4984052817       23.1255609410
  H         6.3028821326        7.2618345029       24.5569646250
  H         5.6489122041        6.9964665836       26.1511113599
  C         4.7659931868        5.6935386575       24.8386216143
  S         6.3971100989        1.6095793235       25.9129199499
  C         6.1523237097        2.3834996190       27.4673679708
  H         6.3325084549        4.4664474606       28.3054561674
  C         7.7095906023        2.9332560422       22.9055924471
  H         8.0924636081        6.5672980445       23.2943693139
  C         8.2185666950        4.9191719298       21.9117793879
  H         5.1227265766        5.4506954986       23.8327605842
  H         4.5483074776        4.7023251920       25.2753658216
  C         3.4586043991        6.4953407184       24.6616095343
  C         5.7009130895        1.6703036076       28.7112112962
  C         8.0891230562        3.5951960456       21.8071067559
  H         7.4980615901        1.8961442521       22.9331588057
  C         8.6192108062        5.2146659176       20.6252152740
  H         2.7493059994        6.0292234575       23.9203504646
  H         3.6096335855        7.5596673070       24.2884958788
  C         2.7139719898        6.8208079730       26.0003310650
  C         5.8014453322        0.3333097064       28.9666228535
  C         5.5313097951        2.5825044854       29.9313337419
  C         8.5106025666        2.7519221778       20.5674117485
  C         8.7796676060        4.1106383798       19.8142856851
  S         9.2774369701        6.6535161947       19.8714684527
  H         1.9755557887        7.6122260188       25.7506308549
  H         3.3111231100        7.1908271773       26.8081114388
  C         2.0969081247        5.6346825573       26.5885498247
  N         6.0801238037       -0.6007038458       27.9506194852
  C         5.6998783012       -0.1593639260       30.2790515106
  C         5.3436982663        2.0572703864       31.1490186268
  H         5.4345908634        3.6512276453       29.8462131246
  C         7.3819377546        1.8667542382       19.9468669361
  C         9.8958419551        1.9877219186       20.7592298369
  C         9.2778317964        4.4028533591       18.5439602715
  C         9.4637326817        5.7740393528       18.3919669155
  H         1.0897825019        5.5808317367       26.1774361278
  H         2.5517310425        4.7103701364       26.2483721972
  C         1.8568011268        5.5699197394       28.0781443606
  S         6.1252665624       -2.0293496931       28.6467729630
  N         5.9765153688       -1.5586839601       30.2579585571
  C         5.3723806239        0.6077792657       31.3959378406
  H         5.2493131667        2.7845566582       31.9703643053
  H         7.1159989068        1.0923193058       20.6378761744
  H         7.7631798423        1.3553877954       19.0573724745
  C         6.1225637215        2.5457621167       19.3988590455
  H        10.0914754271        1.2368853159       19.9534270770
  H         9.7997367967        1.2985786815       21.5716290508
  C        11.1099684008        2.8701176771       20.9862698743
  H         9.4760940816        3.6225729376       17.8004624854
  C         9.8003244696        6.4281830990       17.0453151856
  H         1.1933930949        4.7333027278       28.2389325051
  H         1.3448544400        6.4840809474       28.2719469486
  C         3.1875949154        5.4791820520       28.9785737200
  C         5.0660566350       -0.0648169803       32.6503169186
  H         6.3361154764        3.4552974675       18.7459858058
  H         5.7163727513        3.0611094401       20.2114825807
  C         5.1649999908        1.6124993764       18.6473635712
  H        11.0511274600        3.6270636017       21.7847293105
  H        11.3096795492        3.4282210716       20.0609143459
  C        12.2768131617        1.9688005504       21.4105209474
  C         9.8603724903        7.8335093140       16.9131273278
  C        10.1806941328        5.6209480912       15.8045675526
  H         3.6662196572        4.5879091877       28.6868906718
  H         3.8965217452        6.2780508490       28.7524260283
  C         2.7414515936        5.2449109734       30.4814710245
  H         5.1992310510       -1.1239030467       32.6086526234
  C         4.7970897178        0.3742150525       33.9246246733
  H         4.7629942604        0.8585646381       19.2875830974
  H         5.7781990656        1.0218331025       18.0011344095
  C         4.1915649274        2.4647796734       17.8499299215
  H        12.0364194395        1.6782523177       22.4500634113
  H        12.2283195354        1.0867670135       20.7866152739
  C        13.6431895699        2.6339205699       21.2717001927
  N         9.5933496955        8.7669555781       17.9400975751
  C        10.1860216236        8.4766711618       15.6991447449
  C        10.6212559735        6.2786080777       14.6856762316
  H        10.2337058355        4.5694603349       15.9058265181
  H         1.6193906022        5.1218176191       30.6226790612
  H         3.2349380098        4.3333933949       30.8209432692
  H         2.9897660166        6.1028959167       31.2059476753
  S         4.4376869435        2.0047536722       34.4202031937
  C         4.8809807391       -0.6058070956       35.0245780302
  H         4.0643833189        3.4180422311       18.2760866200
  H         4.5596516980        2.6106387666       16.8118230739
  C         2.8109139206        1.7637204149       17.7178686473
  H        13.6278028284        3.5119372452       20.6768598550
  H        14.4077449907        2.0460266425       20.8130029004
  C        14.2014539070        3.0840345624       22.6031425363
  S         9.7208917193       10.2779729843       17.2813946049
  N        10.1271977893        9.8309859054       15.7411728051
  C        10.6207631110        7.7730468715       14.5451601074
  H        10.9234998470        5.7016258703       13.8853005992
  C         4.2746836470        1.2586177931       36.0707874318
  N         4.5388427140       -0.0726834651       36.2181725635
  O         5.2719075238       -1.7258658423       34.8607405864
  H         2.0635403617        2.3762336196       17.3827314084
  H         2.4454515111        1.4843483838       18.6959163134
  C         2.9303150980        0.4529100328       16.9384905733
  H        14.8860180348        3.8787568612       22.5491828578
  H        13.3550931995        3.5568066988       23.1387691510
  C        14.7752604925        1.9475923061       23.3771645752
  C        10.8334873906        8.5335904235       13.3847481491
  S         3.9658715334        2.3343967908       37.4768836860
  C         4.5932090497       -0.7663633363       37.4957661851
  H         2.6847769339        0.6037794609       15.8821339916
  H         3.9844765904        0.0385478546       16.9244062537
  C         1.9808681093       -0.5315178600       17.4997868783
  H        14.6389386651        1.1016183832       22.7456057008
  H        14.2327105875        1.6971708174       24.2718188021
  C        16.2969586953        2.0954598251       23.6472182407
  H        10.7314515329        9.5925689239       13.5337088989
  C        11.3300548441        8.3148519581       12.1260016885
  H         4.1054568559       -0.1555216594       38.2802827948
  H         4.1179719002       -1.6780319118       37.4937567845
  C         6.0767374470       -1.0121044011       37.8623085561
  H         1.8579641870       -1.2850853166       16.7545234418
  H         1.0764862282       -0.1678152272       17.8844511985
  C         2.6083777391       -1.1897888076       18.6349949996
  H        16.4804625223        2.9470825999       24.3156737191
  H        16.6713116670        1.2783490299       24.2521648838
  C        17.1147822636        2.2778400105       22.3411775980
  S        11.7636787079        6.7943330459       11.6010641535
  C        11.4200030922        9.4099276401       11.1677278694
  H         6.4044224680       -0.5908560133       38.8339928436
  H         6.2563875183       -2.0743120750       38.0124413196
  H         6.7709955392       -0.7700837992       37.1434969017
  H         2.7927729220       -0.4105548450       19.4380377032
  H         3.5423078569       -1.6277337166       18.3928735246
  H         1.9468521083       -1.9574884379       18.9804783891
  H        18.1687644770        2.3785801604       22.5539933282
  H        16.8296736400        3.2989935701       22.0255696730
  H        16.8567339538        1.5688341419       21.6094477443
  C        12.0834078829        7.5756390883       10.0819644522
  N        11.9832684526        8.9217994481       10.0937964086
  O        11.0193220693       10.5756806131       11.4061037156
  S        12.8511673825        6.7048444538        8.7845236220
  C        12.1268622219        9.7554244339        8.9198003081
  H        12.0171117802       10.7856388546        9.1947015031
  H        13.1446618814        9.6737809283        8.4993127971
  C        11.0594285726        9.5584479312        7.8891753512
  H        10.5364811918        8.5894689545        8.0330731664
  H        10.2817866665       10.3267636094        7.8932322564
  H        11.5456343836        9.6631606451        6.8655573274
  H        20.9299140665       11.2678407353        3.1317569474
  C        21.5994614499       10.4373194576        3.2348167152
  H        20.9240169752        9.5418921368        3.3906519476
  C        22.4296903727       10.5630322227        4.5591205984
  C        22.3056959950       10.3462608806        1.9410364054
  C        21.5815396565       10.9219692794        5.8213323410
  H        23.1647979676        9.7480882962        4.8196422665
  H        23.1144260761       11.4389318366        4.4187930369
  H        21.6632192463       10.6647549180        1.1262627066
  H        22.6560120089        9.3487401080        1.8322993016
  H        23.1690714242       11.0366445511        1.8881446751
  C        20.7771591097        9.6616283610        6.2024728425
  H        22.2520003020       11.1513981457        6.6351673871
  H        20.8919187387       11.7454545290        5.5276745591
  C        20.2229236374        9.6809611552        7.6546495620
  H        21.4624613709        8.8366608563        6.2261390465
  H        20.0894770458        9.4432212454        5.4902174869
  C        18.9686196106       10.6156946052        7.5781146857
  H        21.0516926617       10.0842226295        8.2899104054
  H        19.8961774511        8.6668774249        7.9860509887
  C        17.7720758918        9.9348714358        6.9305883221
  H        18.7480137532       10.8125508036        8.5960880268
  H        19.1464016912       11.5338958133        7.0916322213
  C        16.5407364413       10.8647941317        6.8769273801
  H        17.4083910955        9.0611502530        7.6138966060
  H        17.9020325425        9.6293798886        5.9592357884
  C        16.8425115012       12.2594497075        6.2299765113
  C        16.0855507931       11.6585300376        8.1387360132
  C        15.2830790794       10.1637255612        6.2284065723
  C        16.5692088657       13.3481168751        7.0320539056
  C        17.3186366845       12.5953950270        4.9479643527
  C        16.0991370303       13.0401755690        8.2460790156
  C        15.6587181772       10.9869740307        9.2758501854
  H        15.5997418808        9.4766081120        5.4837196996
  H        14.8613144108        9.5288019234        7.0480125222
  C        14.1788278627       11.1100503022        5.6141237387
  S        16.9357510971       14.8430399251        6.1857139075
  C        17.3654220222       13.9649337407        4.7343116129
  H        17.6121500457       11.7486019931        4.3147033121
  C        15.7680462374       13.6558940348        9.4496958063
  H        15.6126643058        9.9366372790        9.2221954442
  C        15.3535847812       11.5730086728       10.4347775545
  H        14.4828680255       12.0479133908        5.2374273474
  H        13.5700879496       11.5260329120        6.4215340436
  C        13.3167184041       10.4372350850        4.5765519383
  C        17.7745193890       14.5988787382        3.4695938990
  C        15.2830208529       12.9094601489       10.5489993026
  H        15.9139623487       14.7589438005        9.5262493396
  C        14.8894014689       11.1540369054       11.6541030456
  H        12.2697782164       10.7059659668        4.7146141812
  H        13.2516451693        9.3909650118        4.7917365957
  C        13.7173227298       10.6199611202        3.1477276452
  C        17.8549286484       16.0052864113        3.2067259099
  C        18.1225346485       13.7363250606        2.2930089196
  C        14.8821757137       13.6272823428       11.8343661259
  C        14.6861091520       12.2144600279       12.5231041410
  S        14.6326779404        9.6269767310       12.4383921127
  H        14.7694949163       10.6149292970        3.1411553075
  H        13.2476277670       11.5669327412        2.8837604349
  C        13.2219150739        9.4445206101        2.3810209792
  N        17.6059651782       16.9494082151        4.1818550942
  C        18.2567260856       16.5225849535        2.0074595294
  C        18.3775695300       14.2387871150        1.0414806309
  H        18.0170427784       12.6769881451        2.3632088874
  C        13.5682364757       14.3477500140       11.6954966424
  C        16.0243157261       14.4538883399       12.4646763087
  C        14.4832397950       11.8245683218       13.8233201986
  C        14.1905084298       10.5062181289       13.9118257125
  H        13.7421237195        8.6090234393        2.8709953111
  H        12.1519785919        9.3782747907        2.5525548666
  C        13.5271381186        9.5715778516        0.9037041131
  S        17.9068436459       18.4059957690        3.5634625656
  N        18.2197838058       17.9517043076        2.0435188007
  C        18.5220744546       15.7221310733        0.8844878859
  H        18.4920442625       13.5463041612        0.1943217194
  H        13.8166244558       15.2294877562       11.1414853930
  H        13.2073439863       14.6748810727       12.6649934359
  C        12.3996514861       13.5099722671       11.1528553904
  H        16.4002989607       15.1686576382       11.7420493261
  H        15.6332145855       15.0581412068       13.2739149267
  C        17.1524087470       13.5806177578       13.0430148367
  H        14.3531910716       12.5620070075       14.5940358000
  C        13.8143998781        9.7717365064       15.1228986593
  H        14.3658182104        8.9244941293        0.6257254005
  H        13.9184125457       10.5144069431        0.7758416619
  C        12.3618675194        9.2322537395       -0.0572637569
  C        18.9728409280       16.3782121344       -0.2579604098
  H        12.5859807872       13.4116209360       10.0719117670
  H        12.2060903118       12.6047550265       11.6234775529
  C        11.1646798948       14.3432752745       10.9828738655
  H        17.5777132196       12.9357945555       12.3274342906
  H        16.7084416166       12.8986330022       13.7889661941
  C        18.2498179205       14.3432276738       13.6376865681
  C        13.8361210894        8.3791519567       15.3512825991
  C        13.6033609757       10.6249810707       16.3654249893
  H        12.8903521754        8.6819271812       -0.8447382865
  H        11.6667642118        8.4797416756        0.2554542316
  C        11.6416052510       10.4311350822       -0.5921108452
  H        19.0904102066       17.4633466226       -0.1911575486
  C        19.2441893572       15.9557036230       -1.5480294402
  H        11.5010390145       15.1442492050       10.2188639563
  H        10.9489091258       14.7966075178       11.9698656285
  C         9.9529842700       13.5284771283       10.4471158654
  H        18.6043046341       15.1586780382       12.9216953509
  H        17.8329317449       14.8105540997       14.5794925686
  C        19.4681206196       13.5654803709       14.1195689213
  N        13.9306733880        7.3712840296       14.3796057127
  C        13.5333709998        7.7437143984       16.6043464001
  C        13.4023909774       10.0127791712       17.6432645368
  H        13.5459636390       11.6684563088       16.2464788413
  H        10.9978039707       10.8304315094        0.1676939678
  H        11.0789733408       10.1134982053       -1.4211664849
  H        12.2865591708       11.2675530787       -0.9749737793
  S        19.4795863123       14.3037597935       -2.0591142990
  C        19.4962864069       17.0439184757       -2.5814157859
  H        10.4756240223       12.9032413806        9.6203266292
  H         9.5357663321       12.9163461238       11.2298155099
  C         8.8219865284       14.3820241358        9.7828524735
  H        19.7668972016       12.8316218285       13.3311095683
  H        19.2248885010       13.1182392710       15.0422107965
  C        20.6925902231       14.3768007030       14.3653727856
  S        13.9441797859        5.9023531224       15.1272261787
  N        13.5921716145        6.3548619838       16.6298666679
  C        13.2260670931        8.4910965537       17.7500461060
  H        13.1924219037       10.6276663287       18.5679325613
  C        19.7428471951       15.0594031694       -3.6768305648
  N        19.7582368694       16.3840128004       -3.7501210350
  O        19.2705066042       18.2783096491       -2.4279468425
  H         8.3132906253       14.9750577814       10.5528540414
  H         9.3020022613       14.9859184623        9.0494569447
  C         7.8944893783       13.4814108852        8.9953156616
  H        21.5271399708       13.7643470894       14.7300678988
  H        21.0078744451       14.7696484676       13.3872529387
  C        20.5150378966       15.6387151914       15.2021560034
  C        12.8350966073        7.8204936756       18.9888910540
  S        19.9802644668       14.2038869743       -5.1160379328
  C        19.7680317630       17.1539995109       -4.9594400100
  H         8.4115719634       13.0636358165        8.1638499892
  H         7.4605178131       12.6370256711        9.5740370893
  C         6.6096920552       14.2004845128        8.4651881008
  H        21.0172039278       15.6449525600       16.1470181680
  H        19.4837314939       15.7732454184       15.4011289786
  C        20.7941036249       17.0068853156       14.5219617743
  H        12.7778279586        6.7631537159       19.0063197545
  C        12.2146546954        8.1759051797       20.1462245993
  H        20.5890785064       16.8085458273       -5.5416675928
  H        20.1068858984       18.1699286990       -4.6340206177
  C        18.3310548744       17.1676525221       -5.6430262790
  H         6.2530747660       13.7400681316        7.5230227586
  H         6.9049065343       15.1823524587        8.1012686529
  C         5.5272864442       14.4013003875        9.4534196921
  H        20.3592763207       16.9707789698       13.5016898038
  H        20.3598835317       17.7941400075       15.1387780084
  C        22.2579064543       17.2969909094       14.3523829194
  S        11.6341107778        9.7405104825       20.5707488354
  C        12.1604396372        7.1227143689       21.1329802213
  H        17.6115029214       17.6214356374       -5.0287287149
  H        17.9586872428       16.2183100304       -5.7886638898
  H        18.3178909506       17.7298860241       -6.6036592201
  H         6.0170432655       14.9652547169       10.2724124813
  H         4.7727339524       14.9969523184        8.8836640363
  H         4.9994509380       13.5692318881        9.9046278024
  H        22.8234748708       16.5281501281       13.8542258178
  H        22.5229605879       18.2663122050       13.9172026329
  H        22.5423756089       17.4148791529       15.4038087833
  C        11.2061077387        8.9646904025       22.0957438610
  N        11.5251078813        7.6244016687       22.1662569278
  O        12.6262092512        5.9657650554       21.0641997101
  S        10.3972496919        9.6824493437       23.4830882928
  C        11.4938762403        6.8649093798       23.4329049093
  H        11.4210696991        5.8840916974       23.2128799484
  H        10.5867255690        7.0459957837       24.0168436697
  C        12.6714484289        7.3292644403       24.2553805771
  H        13.6315993277        7.2748749199       23.6425753204
  H        12.6650934026        6.6327008894       25.1060448686
  H        12.6100733847        8.2792586936       24.7245589658
