352
 i =    58100, time =    58100.000, E =        24.7870113250
  H        10.1828630740        5.1326981528       31.7778022011
  C        10.6858044313        5.9718177029       32.2021809492
  H         9.8793160373        6.5559602203       32.6828832752
  C        11.3784597559        6.7195317686       31.0184069588
  C        11.7324903179        5.4230762517       33.1484253755
  C        11.7875016009        5.8028318712       29.8815919084
  H        10.6564559654        7.3876486096       30.5438620836
  H        12.2166335491        7.4240240978       31.2664898770
  H        12.6950776597        5.2876696688       32.6847875851
  H        11.9463233679        6.0858319087       34.0071413240
  H        11.3789278989        4.4195222578       33.5079950303
  C        10.5808773316        5.2459865697       29.0663747127
  H        12.4097871755        4.9747206168       30.1524576577
  H        12.3582946414        6.4314739320       29.1608409726
  C        10.8341681657        5.0588584678       27.5325872055
  H        10.4560885298        4.2809046170       29.5160569801
  H         9.6291856874        5.7507515239       29.2856200545
  C         9.6902144187        4.4496961219       26.7395441617
  H        11.6633612463        4.4658907742       27.3341807258
  H        11.1974984659        5.9078739735       27.0839351028
  C         8.4672072251        5.3436548946       26.3708109992
  H        10.2005073022        4.1649506778       25.8348010450
  H         9.2564395977        3.5537578328       27.2767521277
  C         7.3974475402        4.7355601798       25.4195794113
  H         7.8610844286        5.3542232091       27.2706780290
  H         8.7699499287        6.3974563762       26.1289630314
  C         6.9546383130        3.3701115151       25.9774212207
  C         7.8432468191        4.0668723693       24.2105289507
  C         6.1718377949        5.5265529755       24.9798962078
  C         7.2262732308        2.2876531655       25.1892031158
  C         6.4862732318        3.0158366469       27.2286102419
  C         7.6719015331        2.7383637039       23.9847616908
  C         8.3378649383        4.7615838132       23.1041165853
  H         5.6690172240        4.9695895380       24.1439824972
  H         6.5697270237        6.4476463493       24.5489035266
  C         5.0975610711        5.8974663548       26.0293245701
  S         6.6246958454        0.8201301332       25.9110345630
  C         6.3395266094        1.6367592745       27.3702331170
  H         6.3673920201        3.6888530257       28.0435008922
  C         8.0698929584        2.1540574736       22.8048136719
  H         8.5238632215        5.8280522548       23.0579084431
  C         8.7577881602        4.2227279535       21.9707306242
  H         5.2751775729        5.3663848366       26.9000620309
  H         5.1556699478        6.9318822878       26.4514134760
  C         3.6848043259        5.6857749446       25.4402230618
  C         5.9790145629        0.8634774634       28.6260543546
  C         8.6073523892        2.8599260569       21.7379267220
  H         7.9280951353        1.0748457825       22.6482860494
  C         9.0821262656        4.6936718225       20.7576087674
  H         3.5984647819        4.7132955465       25.1266965877
  H         3.5837368778        6.3260853033       24.5141090170
  C         2.5218646540        6.0541313252       26.2980659684
  C         5.9265445907       -0.4945108579       28.8682534761
  C         5.6027165290        1.6370376545       29.7632496394
  C         9.0091404700        2.2158846424       20.4319319235
  C         9.3682786330        3.6322364987       19.8533857429
  S         9.1282520354        6.2207044368       19.9872518822
  H         1.7657064227        6.4489842348       25.6309063645
  H         2.5969322878        6.7760642637       27.1428755831
  C         1.9888875271        4.7920092542       26.9163755237
  N         6.2569067530       -1.4879225460       27.8648815245
  C         5.6675227778       -1.1052007747       30.0700813543
  C         5.2940298588        1.0610355769       30.9790023888
  H         5.7183244514        2.6616392547       29.7442231325
  C         7.8151359413        1.5641183655       19.6787520257
  C        10.2670744782        1.3736822165       20.4539535486
  C         9.7663730804        4.0999460683       18.5582554261
  C         9.6129370099        5.4470981453       18.4703115970
  H         1.2778981915        4.2497768062       26.1830971033
  H         2.7895128074        4.1876629831       27.1224861513
  C         1.1683905359        5.1522078014       28.1965872387
  S         6.2048728474       -3.0254291240       28.5117213606
  N         5.8976454423       -2.5082547001       30.0419214821
  C         5.3122360171       -0.3950683044       31.1896596818
  H         4.9896362099        1.7121026962       31.7962134007
  H         7.4134294366        0.7031846042       20.1852341007
  H         8.1351553870        1.1361672823       18.7492921241
  C         6.6323243395        2.4511390404       19.3638207077
  H        10.2726970069        0.8093666178       19.4878864786
  H        10.0966256806        0.5825484335       21.2149712258
  C        11.5069709003        2.1570482032       20.9277688455
  H         9.9336860678        3.4029244966       17.7711531474
  C         9.8609355728        6.2838115029       17.2339114085
  H         0.3193721335        4.4621470985       28.2967123214
  H         0.6739984558        6.1049049900       27.9918066238
  C         2.1430754470        5.0306930444       29.3851437371
  C         5.1342740614       -1.1085020640       32.4324294129
  H         6.8291014951        3.1684292048       18.5792346451
  H         6.3853238655        2.9892459928       20.2453563581
  C         5.3645256135        1.6200911762       18.9214214251
  H        11.4635174673        2.4041321280       21.9233024683
  H        11.7285785253        3.1210766756       20.3835925804
  C        12.6745766581        1.1923548221       20.7427672182
  C         9.9572369396        7.6976303438       17.1427892992
  C        10.1125180012        5.4916380369       15.9917261410
  H         2.6428167362        4.0904226448       29.2707973728
  H         2.9167197925        5.7996916931       29.3091808233
  C         1.5136398160        5.2176626241       30.7677579069
  H         5.1613527852       -2.1921328569       32.3909173633
  C         4.8794064766       -0.5956015285       33.7083019137
  H         5.0481913414        1.1114346735       19.8230314001
  H         5.6567237424        0.8996575645       18.1524534834
  C         4.2984102995        2.4860437662       18.3395130491
  H        12.6944821992        0.4536908921       21.4366324237
  H        12.5832781587        0.6833681408       19.8383710799
  C        14.0087774605        2.0054120428       20.8251730880
  N         9.8904247168        8.5217857181       18.2813775773
  C        10.3126533193        8.3628102263       16.0253884286
  C        10.4554891056        6.1427622332       14.8665276021
  H        10.0399586041        4.4211291795       15.9832987105
  H         0.9618080773        4.3708169302       31.0700774553
  H         2.3329283060        5.3160469152       31.5233147359
  H         0.9170936866        6.1573732799       30.8546237439
  S         4.4769215811        1.0562064165       34.0863115592
  C         4.7263599759       -1.5267396413       34.8510227527
  H         4.2667492215        3.4474896071       18.8065067751
  H         4.4474146711        2.7505009888       17.3140135331
  C         2.9405465546        1.8327242653       18.4727047317
  H        14.0405684484        2.9794824675       20.3163143262
  H        14.7168228636        1.3387902692       20.3521339836
  C        14.5402373212        2.0866280787       22.2672741589
  S        10.0706455224       10.1030115354       17.8362954078
  N        10.2564298048        9.7923217283       16.2151418522
  C        10.5234446344        7.6135096910       14.8095492417
  H        10.4615630334        5.5894682781       13.9062010810
  C         4.1891216143        0.5076892837       35.7049888643
  N         4.3970380877       -0.8335010416       35.9244766121
  O         4.7663375998       -2.7335493725       34.7271761644
  H         2.1055683362        2.5801110842       18.4009684822
  H         2.6255932412        1.4018850182       19.4821703651
  C         2.6921479269        0.6900426283       17.3798487355
  H        13.8582245890        2.7601106321       22.8251283361
  H        14.2862959642        1.1734414823       22.8372584087
  C        15.9252286392        2.6213874752       22.5607057517
  C        10.7554467946        8.4454223419       13.6516757109
  S         3.8925832446        1.4860085068       37.0811301903
  C         4.4974532608       -1.3292564258       37.3578406796
  H         1.8112309132        1.0275286634       16.8712499547
  H         3.4941168635        0.8275404963       16.6246508731
  C         2.6206653666       -0.6948322023       17.8777542042
  H        16.1399673178        2.4012517656       23.6133904602
  H        16.0512740666        3.6768865123       22.4072271419
  C        17.0354631864        2.0148949573       21.7775332403
  H        10.3648124818        9.4196316560       13.7301239040
  C        11.1361662089        8.1754753226       12.3563545437
  H         3.7921786322       -0.8864661813       38.0058356411
  H         4.2816113496       -2.3608178388       37.3752100638
  C         5.9718015171       -1.1185164524       37.8118844845
  H         2.4333777800       -0.7596127871       18.9362481845
  H         3.6119834333       -1.1375937658       17.6013353668
  C         1.6219749285       -1.5720556764       17.1720024447
  H        16.8133036188        1.0268115200       21.7407818949
  H        17.1359701598        2.4735660553       20.7763885575
  C        18.3571967921        2.2684268911       22.3689942692
  S        11.7804750589        6.6899815076       11.8012232288
  C        11.2877631606        9.3462882555       11.3992803716
  H         5.9721011017       -0.5611944889       38.7360460817
  H         6.5108449824       -2.0904952638       37.9622550438
  H         6.4840131088       -0.5006452492       37.0955808108
  H         2.2012129440       -2.0248029685       16.3990876047
  H         0.7307437101       -1.0070822599       16.7558478577
  H         1.3667676736       -2.4277085496       17.8611152006
  H        18.5836488941        3.3518494836       22.2154091753
  H        19.0633043500        1.6787724125       21.9243060214
  H        18.4191648232        2.0190442204       23.4500804283
  C        12.2046037612        7.6100926569       10.2893824152
  N        11.9011622874        8.9217863418       10.2725526353
  O        10.8585604851       10.4812639255       11.5868150335
  S        12.9249143325        7.0002240765        8.7276914155
  C        12.0686475982        9.8101818720        9.0876181146
  H        12.1066425302       10.8487277890        9.3235913606
  H        13.0545668413        9.5518465531        8.5759037046
  C        10.7151454069        9.5555863585        8.3187469488
  H        10.4884431074       10.4561900395        7.6949426298
  H        10.8633918585        8.7854741870        7.6003609025
  H         9.8338635638        9.2278134694        8.9489624024
  H        21.5783023186        8.7767902155        3.6912666494
  C        22.1197180124        9.7004770088        3.4813798974
  H        22.8712920338        9.2857668136        2.8411434002
  C        22.8454495581       10.2408288598        4.7480597090
  C        21.3249311634       10.6500655743        2.6012874529
  C        21.8940815271       10.6464099201        5.9573127458
  H        23.5406756669        9.5531945842        5.1482358618
  H        23.3213829390       11.1473843877        4.4237639488
  H        20.7221181179       11.3022367615        3.1624766885
  H        20.7495006341       10.1215595992        1.9298246470
  H        21.8081265791       11.3445951590        1.9513336834
  C        21.3435663294        9.3857950858        6.6417205293
  H        22.4596825036       11.2635550696        6.7231559627
  H        21.0930137410       11.2954881595        5.6051226047
  C        20.3945938693        9.7015108457        7.7804994962
  H        22.2492908084        8.8147555413        6.9809783828
  H        20.8476994928        8.7755144311        5.8851931667
  C        19.0697806174       10.5439557485        7.5357593991
  H        20.9938749978       10.1079969522        8.5465456881
  H        20.0016469123        8.6864239728        8.0767997723
  C        17.8267848632        9.8356935377        6.9575082837
  H        18.8162613321       10.9331014065        8.5280747748
  H        19.3770913840       11.4059555165        6.9492198845
  C        16.5340700542       10.7043605325        6.8376783466
  H        17.6246694044        8.9587398494        7.6217635697
  H        18.0702684931        9.3049814457        6.0774457153
  C        16.8683557956       12.0510702421        6.1866175288
  C        16.2077160086       11.3813489316        8.1664617369
  C        15.3229136007        9.9070880064        6.2104034293
  C        16.7256405032       13.1361365446        7.0279070988
  C        17.2734699818       12.4321779155        4.8868196622
  C        16.2713865522       12.7529541333        8.2599190905
  C        15.8676726897       10.6747803598        9.3186370854
  H        15.6556024980        9.3491706120        5.3118238889
  H        14.8434647167        9.3335560736        6.9618503646
  C        14.1637067501       10.7604050154        5.7589548225
  S        17.1013883510       14.6009462831        6.2734074752
  C        17.4562299405       13.7937240991        4.7935716436
  H        17.4578527561       11.6138827307        4.1632686659
  C        15.9136805257       13.3212398769        9.4517344189
  H        15.8040125571        9.5893045331        9.3120340096
  C        15.4283685816       11.2831671063       10.4441751279
  H        14.5363916929       11.5874080981        5.1855615834
  H        13.6571435367       11.2243770680        6.5873526640
  C        13.1223639643       10.0607716282        4.8988101920
  C        17.9587846885       14.5672622615        3.6331959753
  C        15.4346419515       12.6081362325       10.5728193640
  H        15.8742443884       14.3718935161        9.6084285850
  C        14.9497830025       10.9083273726       11.6683681366
  H        12.2130872364       10.0693435292        5.5142044886
  H        13.2663801671        9.0125742594        4.6613139949
  C        12.8290345283       10.6687208257        3.5620848686
  C        18.0499686899       15.9673726125        3.4631867244
  C        18.4729283591       13.8196032715        2.5049967624
  C        15.0108347437       13.2936736644       11.8948941719
  C        14.7708295575       11.9546908387       12.5757317361
  S        14.6405850172        9.4175111693       12.3067111876
  H        13.7916629658       10.9589204237        3.0718097269
  H        12.3693796478       11.7420822776        3.6477418397
  C        12.0219614151        9.8745600401        2.5704028834
  N        17.7201884869       16.8695411444        4.5040470973
  C        18.3856178686       16.5863581162        2.3217118287
  C        18.8345609155       14.4223392110        1.3032670471
  H        18.5284462011       12.7100393359        2.4495721473
  C        13.6601238616       14.0967120704       11.7561240225
  C        16.1775984481       14.1190570481       12.5274701563
  C        14.4107581587       11.5632306310       13.8443788300
  C        14.2950218628       10.1834366328       13.8975295433
  H        11.3174132331        9.2143178453        2.9859738786
  H        11.5189297725       10.5467430713        1.9572519506
  C        12.9788800132        9.0619689270        1.5920257358
  S        17.7734574364       18.3283865225        3.8617322697
  N        18.3097954439       17.9913947540        2.3373306717
  C        18.7149587809       15.8866262157        1.1091117638
  H        19.1130747242       13.8030756716        0.4579160085
  H        13.9839536642       15.0241799572       11.2033135616
  H        13.3347862233       14.3600883042       12.7661308812
  C        12.5791138422       13.3943711393       10.9045225635
  H        16.5155677231       14.7011445546       11.6298315413
  H        15.7822978770       14.8784258582       13.1686902487
  C        17.3440394949       13.3671696619       13.0899644774
  H        14.2135416294       12.2468963555       14.6377285045
  C        14.1169608416        9.3414447693       15.1850410984
  H        12.3417132396        8.3549250779        1.0769810785
  H        13.8338940444        8.5346306214        2.0293682002
  C        13.3839143534       10.0682040575        0.4373622385
  C        18.9769831546       16.4821952510       -0.1400613097
  H        13.0506200501       13.0709174831        9.9824449194
  H        12.1514899185       12.4802158525       11.4004462926
  C        11.4418912723       14.2751927092       10.5829055371
  H        17.5919422277       12.4890742021       12.4933732776
  H        17.0501080736       13.0432390684       14.1488104111
  C        18.4634346232       14.3580041300       13.2496594882
  C        13.9982490130        7.9377544834       15.2143849339
  C        13.7453875500       10.1236169453       16.3958758197
  H        13.6372298876       11.0911016781        0.8350658267
  H        14.3217493240        9.6995861742        0.0229841627
  C        12.3382743677       10.1920252418       -0.7190682582
  H        18.8948561789       17.5655319258       -0.0322036616
  C        19.2775484040       16.0617241066       -1.4285170551
  H        11.6591113014       15.0175899408        9.8686339944
  H        11.1743845030       15.0123693631       11.3706455438
  C        10.3241459807       13.3903301627        9.9847220863
  H        18.6000327262       14.9956010503       12.3297984485
  H        18.2887459590       15.1218032944       13.9780913023
  C        19.8460033580       13.7201552320       13.6326309514
  N        13.9437055986        6.9810359311       14.2224792657
  C        13.7467246985        7.3038066557       16.4634570770
  C        13.4208765332        9.4498668498       17.5415357174
  H        13.5963332978       11.1775754885       16.4467390158
  H        12.1236350764       11.2305986386       -0.8563365604
  H        11.4340508433        9.6006047976       -0.5217471456
  H        12.8079770178        9.8595751067       -1.6466467394
  S        19.4166893442       14.4701926514       -2.0482983475
  C        19.3544979206       17.1687449873       -2.4436351297
  H        10.7572864810       12.7314115931        9.2168092569
  H         9.9055337622       12.7844218165       10.8461835993
  C         9.2944987510       14.2817850636        9.2861276693
  H        20.1546871003       13.0322508074       12.8620559305
  H        19.7995341265       13.0824117357       14.5138941869
  C        20.9820793487       14.7551567986       13.5676474788
  S        14.1270660021        5.4539558869       14.8092669780
  N        13.5351355225        5.8935393686       16.2745391310
  C        13.3984743538        7.9212946283       17.6165872843
  H        12.9926864922        9.8950526930       18.4036346730
  C        19.6932620316       15.1832468484       -3.6207442289
  N        19.5617142063       16.5715079185       -3.6561530134
  O        19.1395645375       18.3516395694       -2.2048782602
  H         8.7523834162       14.9707535053        9.9708728505
  H         9.7635472606       14.9277631524        8.5206418982
  C         8.2752406504       13.4074253327        8.6043908897
  H        21.8656242973       14.3655457626       13.1047893173
  H        20.6771870900       15.7382212154       13.0570364138
  C        21.4314741674       15.1152506715       14.9707214732
  C        12.9612862326        7.1789504348       18.8108180253
  S        19.7854803522       14.2527134104       -5.0663839530
  C        19.2850742578       17.2972833026       -4.9693760958
  H         8.2846002452       13.5566586616        7.5407315762
  H         8.5345260329       12.3728103297        8.6967679642
  C         6.8385902037       13.7521089626        9.2163876635
  H        22.3710060755       14.5908249390       15.2794544090
  H        20.6228688966       14.7362644678       15.5631506455
  C        21.5261738134       16.5313247342       15.3606057550
  H        12.9527271483        6.1343392651       18.6798997284
  C        12.5580727502        7.4447120167       20.1284998985
  H        19.8958306453       16.9439375155       -5.7642706785
  H        19.5556898876       18.3334118292       -4.8024441440
  C        17.8158271282       17.1848611231       -5.4441458751
  H         6.2175565747       13.5852820207        8.3900237188
  H         6.6980654288       14.7902149095        9.4489347202
  C         6.4458893820       12.9708180508       10.5114602603
  H        20.5491838947       16.9609233115       15.2713613259
  H        21.7327485607       16.6848330422       16.3982501373
  C        22.5043462015       17.2902111274       14.4359147450
  S        12.2604557491        9.0532494927       20.7293951989
  C        12.3978974863        6.4168857441       21.1580934050
  H        17.5633951851       17.7501419328       -6.3071695175
  H        17.2238677037       17.4835581384       -4.5546412631
  H        17.5599022972       16.1342544164       -5.6488857463
  H         5.6623021846       13.3941060220       11.0172809217
  H         6.2152213331       11.9994485802       10.2314688068
  H         7.3030115841       13.0334708804       11.2129537429
  H        21.8901771220       17.7029562729       13.6543703891
  H        23.0099364930       18.0817863727       15.0491756820
  H        23.2124865337       16.5079334172       14.0217728910
  C        11.8360040861        8.2868468745       22.1996455274
  N        11.9228572104        6.9592988569       22.2697357186
  O        12.6642745249        5.2425288784       20.9471763574
  S        11.1730885696        9.0924595499       23.6289322816
  C        11.9346827191        6.1256310837       23.4850531881
  H        11.5425774500        5.1024339205       23.2162345284
  H        11.1204250439        6.4043138034       24.1955545805
  C        13.3091318814        6.1964634905       24.2801689752
  H        13.0138928964        6.3462671079       25.2916231204
  H        13.7210276290        7.0391876918       23.7715273730
  H        13.9450106935        5.3708263515       24.1308352972
