352
 i =    24800, time =    24800.000, E =        25.1032150068
  H        11.7882258671        6.7554792444       31.9091967858
  C        11.2182517493        5.8186822524       32.2664319176
  H        12.0589148945        5.1736781633       32.1270614943
  C        10.3776524642        5.5386201740       31.0181987860
  C        10.5877209968        5.8819200373       33.6666134248
  C        11.0957655595        5.7076328004       29.6719347862
  H        10.1683218037        4.4828478659       31.0779672678
  H         9.3473511113        5.8919176645       31.0218023522
  H        10.6824979587        6.9575162711       33.9183996689
  H         9.5817613573        5.4374475286       33.6373344802
  H        11.2260114401        5.4068170330       34.4138245534
  C        10.0120610529        5.8180773431       28.6657257680
  H        11.7593718229        4.8226367463       29.4203252439
  H        11.8611159384        6.5294191547       29.5574102922
  C        10.5922960356        5.6902616685       27.2056051002
  H         9.3126545505        4.9689388405       28.7920841049
  H         9.4863200277        6.7746366789       28.8122702213
  C         9.6161205108        4.9513198460       26.2724251728
  H        11.5469538782        5.0901434671       27.1607233480
  H        10.8052472760        6.7189363746       26.8925673493
  C         8.2505054268        5.7256701202       26.1270008792
  H        10.1406464247        4.6416206579       25.3786161937
  H         9.3993250937        3.9488699746       26.6326759486
  C         7.1323571174        4.9699257674       25.3673462594
  H         7.8151193720        5.9701917816       27.1297501024
  H         8.4386476697        6.6358120100       25.6645922544
  C         6.8421060868        3.6465774840       26.0915965205
  C         7.5576236816        4.2995109241       24.1114951937
  C         5.8764251395        5.8505744790       25.3111905549
  C         6.9920943907        2.5894392886       25.2609570125
  C         6.5902460743        3.2496077285       27.4298506795
  C         7.5763742465        2.9655921109       24.0503351119
  C         8.2060496045        5.0533865900       23.1234298309
  H         6.1097270587        6.7347552612       24.7207148935
  H         5.5764593592        6.1704126394       26.3198891123
  C         4.5888344021        5.2612693432       24.9022103561
  S         6.5254762338        1.1009690286       25.9737572476
  C         6.2994222424        1.9773311191       27.4709383091
  H         6.5808381004        3.9566433986       28.1342835727
  C         8.0204830903        2.4029822154       22.8976825742
  H         8.1975386097        6.1006614371       23.1687468342
  C         8.6116508102        4.4878486409       21.9444442297
  H         4.7409625226        4.7708548270       23.9254842630
  H         4.4699959034        4.3752127278       25.5424378917
  C         3.3471799989        6.0530465784       24.9319240485
  C         5.7635755620        1.3986242018       28.7143690440
  C         8.5319825213        3.1209558498       21.8221097710
  H         8.0970903660        1.3390240303       22.7946023149
  C         9.0748538236        4.8441387991       20.7031564805
  H         2.6053176295        5.7659809757       24.1947312443
  H         3.8392524732        6.9347802727       24.6159240477
  C         2.7366390301        6.2038292686       26.3482073499
  C         5.8519194259        0.0490784234       29.0748534154
  C         5.2688302630        2.2397471151       29.8328364761
  C         9.0312337089        2.3767674070       20.6518815697
  C         9.3930774825        3.6880557185       19.9622289652
  S         9.3527218736        6.2881348667       19.9068285980
  H         2.0977112412        7.0791098677       26.2986075678
  H         3.5598326418        6.4254249163       27.0721216088
  C         1.9142695965        5.0342793299       26.7042148289
  N         6.4007381212       -0.9234436189       28.1925844811
  C         5.6157275989       -0.4852227607       30.3017629424
  C         4.9531263603        1.6969042135       31.0632517353
  H         5.0665306367        3.2800216298       29.5972195701
  C         7.8806366015        1.4997557515       20.0644055458
  C        10.2694864976        1.4719350564       20.9575347580
  C         9.7462949450        4.0428951542       18.6579959466
  C         9.8429758153        5.4245163985       18.4896793353
  H         1.2767485207        4.8466247309       25.8420897539
  H         2.5306076996        4.1701870616       26.9227875005
  C         1.1152917618        5.1540294273       27.9604371004
  S         6.3716916667       -2.3350508342       28.9149947417
  N         5.7575143819       -1.8747137916       30.3356116146
  C         5.1329547732        0.2658399629       31.4043117479
  H         4.4968918625        2.3305272887       31.8589872243
  H         7.6673799337        0.7479893852       20.7739038094
  H         8.2939599096        1.0542240447       19.1507711951
  C         6.6183833895        2.3818365309       19.7902031359
  H        10.5666018619        0.9281506483       20.0782004807
  H         9.9989614607        0.6312518602       21.6016845136
  C        11.5252822903        2.2044072518       21.4727675717
  H         9.8868340349        3.3363331339       17.8845710349
  C        10.1673104750        6.1036622474       17.2481678309
  H         0.7332416776        4.0586794645       28.0680852511
  H         0.2448923577        5.7975727622       27.8779783272
  C         1.9539112061        5.4582077380       29.2272373791
  C         4.9265102514       -0.4159106723       32.7052775634
  H         6.9430768394        3.1116891310       19.0621128677
  H         6.3192453011        2.8926986638       20.6708321368
  C         5.5124778815        1.4776650691       19.1972224868
  H        11.3962196639        2.2365577782       22.5717221220
  H        11.5652297973        3.2064438060       21.0510537630
  C        12.8093654173        1.3952692027       21.2018370071
  C        10.1380962852        7.4910615308       17.0605968439
  C        10.5713883545        5.2968671036       16.0789754062
  H         2.9418163900        4.8968334774       29.2679923609
  H         2.2650256148        6.4844811516       29.2595719598
  C         1.1210582455        5.1873522461       30.4996260396
  H         5.0449406362       -1.4910799928       32.6677485478
  C         4.6421613159        0.0349872895       33.9579999662
  H         5.2623778452        0.8031976538       19.9849068426
  H         5.9009171983        0.8187434141       18.3330457027
  C         4.3138186211        2.2543097287       18.7081351324
  H        12.9244031785        0.6026715760       21.9259081367
  H        12.8057481572        0.9352164526       20.2688523393
  C        13.9757858093        2.3712887898       21.2720630904
  N         9.6672140232        8.4225942322       17.9998814386
  C        10.4667277182        8.1287179056       15.8861035377
  C        10.9137412753        5.8796673219       14.8767461336
  H        10.6695157495        4.2370788636       16.2751388903
  H         0.3209039866        5.8528703106       30.5941042103
  H         0.9065870942        4.1071850952       30.6861391031
  H         1.6296228433        5.4917403105       31.3258548228
  S         4.3409176048        1.6447908739       34.4761538541
  C         4.5849110521       -0.9573933435       35.0688795057
  H         4.2128120252        3.0809178977       19.4031392934
  H         4.4842486458        2.6475177715       17.6969398646
  C         3.0526827017        1.3169733625       18.6947086614
  H        13.9110399285        3.1935484326       20.5576792195
  H        14.8778850603        1.8956198678       20.9892309660
  C        14.2559890230        2.8746313694       22.6514526323
  S         9.9383490842        9.8814798272       17.3770622738
  N        10.4642862470        9.4947614362       15.9165420445
  C        10.7848263103        7.3680761801       14.7285509863
  H        11.1831983715        5.2460656326       14.0384250919
  C         4.0313197741        0.9532321941       36.1229226570
  N         4.1560716799       -0.3889393258       36.2069374313
  O         4.6174705237       -2.1844945120       34.8480746470
  H         2.2718338380        2.0206753641       18.6050821270
  H         2.8603471303        0.8588691255       19.7202484012
  C         2.9967880439        0.1741567235       17.6011475057
  H        14.8775944926        3.7154959778       22.6207049832
  H        13.3425887342        3.1684519764       23.1757004811
  C        14.9644072234        1.7476536403       23.4375433277
  C        11.0709486343        8.1271442500       13.5144160986
  S         3.4555192567        1.7646427856       37.5988363143
  C         4.1826118977       -1.1380856390       37.4397834506
  H         3.1139867826        0.7865239658       16.7132560105
  H         3.8265966328       -0.5119053968       17.6562226340
  C         1.7528693926       -0.6989393509       17.6941335604
  H        14.9669230362        0.8213575274       22.9880837086
  H        14.4295828945        1.5599144779       24.3812355039
  C        16.4380704264        2.0763701743       23.6892671665
  H        10.7645615665        9.1823270115       13.4416547089
  C        11.6897496828        7.8545306676       12.3000973495
  H         3.3652364441       -0.8530249989       38.1324002998
  H         3.8478097873       -2.1216941340       37.2262685413
  C         5.5559022361       -1.2967924402       38.0882550691
  H         0.9171477940       -0.2976417626       17.1427877912
  H         1.2944566574       -0.6358029010       18.6808085039
  C         1.9334883062       -2.1596404461       17.3198560437
  H        16.4273245150        2.8540776266       24.3854274256
  H        16.8901237502        1.2847548956       24.2557252982
  C        17.3310388156        2.3843324647       22.4296148520
  S        12.2606827803        6.3143040658       11.8659418273
  C        11.8188846741        8.9702257959       11.3349119834
  H         5.9015738932       -2.3201187307       38.3250560032
  H         6.3792735090       -0.8562673133       37.4986493146
  H         5.5897064327       -0.6395803006       39.0066144214
  H         2.3638322268       -2.1289994839       16.3313899582
  H         1.0394159088       -2.7805290149       17.4921617930
  H         2.7301207850       -2.5425717066       17.9636553303
  H        18.3783919783        2.5201230790       22.7040054397
  H        16.9655908233        3.2080630204       21.9032453280
  H        17.1917159330        1.5973095649       21.7566203937
  C        12.4580942733        7.0429228426       10.3046891124
  N        12.2554205919        8.4173566281       10.2332090431
  O        11.5723981964       10.2149542453       11.4963424151
  S        13.2699684956        6.2792439258        8.9590911087
  C        12.4814798370        9.2396871668        9.0269536591
  H        12.4710387616       10.3433116225        9.2644322972
  H        13.4839628279        9.0139152217        8.5288382604
  C        11.3732787994        8.9345537763        8.1019638268
  H        11.6239094637        8.0490289621        7.4709038588
  H        10.4748448799        8.7499701879        8.7188795784
  H        11.1899341233        9.7101779368        7.3914897707
  H        20.6253987150       10.6650693461        3.3829476292
  C        21.5230392066       10.0709273717        3.3939808319
  H        21.2302635344        9.0301205275        3.4788230467
  C        22.5266032375       10.4929133629        4.5505739227
  C        22.1385773208       10.1538075453        1.9136248298
  C        21.9373786218       10.4743151288        5.9759994011
  H        23.4965771842        9.9682493909        4.4719567916
  H        22.8208480421       11.5057220493        4.2777807604
  H        21.3634847199        9.7884390072        1.2214021375
  H        23.0547730354        9.5431460306        1.7521923681
  H        22.2679464439       11.2386121837        1.7124050054
  C        21.1231490210        9.2231323501        6.3350326906
  H        22.7893583883       10.5108816106        6.6062506946
  H        21.4313679370       11.4067799437        6.1296602888
  C        20.3044402010        9.4455486422        7.6444282023
  H        21.8039754857        8.3134860942        6.4946785798
  H        20.4250140482        8.9833305339        5.5543012471
  C        19.1046496532       10.3859912537        7.6360563580
  H        20.9314729867       10.0600252919        8.2852959200
  H        20.0882087559        8.4811851219        8.1233312049
  C        17.7453504162        9.7896501058        7.0936218034
  H        18.9831802864       10.8300240579        8.5907583979
  H        19.2989100842       11.2100484749        7.0074482526
  C        16.4833277810       10.6459641859        7.1335983381
  H        17.5278406032        8.8754150219        7.7701760240
  H        17.8524359317        9.5127871308        6.0791171600
  C        16.8400868439       12.0153509008        6.4493918041
  C        16.1364847208       11.3587515825        8.3838297721
  C        15.3376554345        9.9164408071        6.4548844084
  C        16.7492550265       13.0961232714        7.2933254749
  C        17.3297280445       12.3503668295        5.1707525557
  C        16.2025920527       12.7118425652        8.4581580199
  C        15.5564394996       10.6938507394        9.5760674635
  H        15.7143904786        9.5772242093        5.5482598108
  H        15.0999504542        9.0325797587        7.0230880045
  C        14.1500084164       10.8873399693        6.1615558799
  S        17.2296365071       14.5378569961        6.5442609344
  C        17.6169537318       13.6838714696        5.0657457410
  H        17.5133441808       11.5657474995        4.4486175102
  C        15.9707778409       13.3212620639        9.6387338413
  H        15.4683796320        9.6130900402        9.6412860128
  C        15.3028329882       11.4196111516       10.6844258935
  H        14.5021102107       11.8218307392        5.6863975434
  H        13.6690801591       11.2262731198        7.0942997000
  C        13.1350034654       10.2611892929        5.1548603433
  C        17.9641423727       14.3870383524        3.7747050974
  C        15.3140621473       12.7744640222       10.7176836599
  H        16.0931899247       14.3788602669        9.7932722798
  C        14.8717258348       11.0512747404       11.9202501973
  H        12.3329301816       10.9616269286        5.2080567732
  H        12.7376467534        9.3038159263        5.4605207176
  C        13.6049625956       10.3898083279        3.7673334795
  C        17.9693727386       15.7667126473        3.5069275491
  C        18.3666403862       13.5250389958        2.6216465128
  C        15.0188321077       13.4520513493       12.0278197183
  C        14.8009437151       12.1452304621       12.8060085705
  S        14.6773797137        9.5115379703       12.7065825455
  H        14.6020971013        9.9206533230        3.7498571553
  H        13.6702725630       11.4926065280        3.5783289297
  C        12.6873236634        9.6428554607        2.8122710087
  N        17.7163243340       16.7805440375        4.4402590215
  C        18.1934989245       16.2972543427        2.2432819719
  C        18.5587318755       14.0187751297        1.3611730510
  H        18.3362288837       12.4666128105        2.7753023980
  C        13.7068203319       14.1752451640       11.9881369465
  C        16.1636314800       14.3493706828       12.5269849136
  C        14.4804066040       11.6957130277       14.1527607892
  C        14.4037888488       10.2953996428       14.2436625833
  H        13.3408612374        8.7909228287        2.5334099201
  H        11.8131777634        9.2340254716        3.3527215825
  C        12.1884020347       10.4201231157        1.5795665222
  S        17.4752870834       18.1646119672        3.6517834216
  N        17.9493018381       17.7051394010        2.2076917508
  C        18.5577523734       15.4880362870        1.1159364348
  H        18.7114996625       13.2482269688        0.5650502300
  H        13.7062889082       14.9372633229       11.2206972770
  H        13.4758191757       14.7464219299       12.8537722777
  C        12.4848494219       13.3714254267       11.6717587508
  H        16.3704418040       15.1380096876       11.8178791289
  H        15.7285433358       14.8377553575       13.3990760892
  C        17.3715430814       13.5993418349       13.0991503636
  H        14.2948652922       12.5301753054       14.8196918959
  C        13.9526548155        9.4611594577       15.3667258364
  H        12.7803954651       11.2501580057        1.4541360829
  H        11.2301407524       10.9099983001        1.7414284008
  C        12.4896023100        9.7473625386        0.2357906784
  C        18.7843751522       15.9982861808       -0.1804246616
  H        12.6414865069       12.6126538347       10.8797652640
  H        12.2106748267       12.7152816539       12.5123326986
  C        11.2751155254       14.1958251666       11.2422442071
  H        17.8765766375       12.9165204653       12.4109750176
  H        16.9847051807       13.0048296983       13.9330833583
  C        18.3942123875       14.5537695971       13.6567237632
  C        13.9636210870        8.0798813397       15.5042887829
  C        13.7457803603       10.2051137988       16.6695148998
  H        13.5598657856        9.8488364047       -0.0160815419
  H        12.1278706871        8.7798256491        0.3816173972
  C        11.6883005573       10.3845840236       -0.8221964553
  H        18.4949431470       17.0711332968       -0.2418019226
  C        19.1018914856       15.4792611924       -1.4490938266
  H        11.6609436202       14.8424247323       10.4334499290
  H        10.9195925384       14.8562780421       12.0207071696
  C        10.1750383742       13.2313752365       10.7650909092
  H        18.5886845078       15.2538164334       12.8930795435
  H        18.0230614327       15.1206022622       14.5278083845
  C        19.7385797216       13.8474451952       14.0138334019
  N        14.3509854077        7.1391524604       14.4957832296
  C        13.6330850483        7.4393213963       16.6652317555
  C        13.4600147892        9.6182962600       17.8769007066
  H        13.8313668864       11.3062642216       16.5661184502
  H        10.6271000819       10.3822252586       -0.5372539205
  H        11.6970533604        9.7659842269       -1.7450808701
  H        11.8613747382       11.4507677211       -0.8500455691
  S        19.5147172494       13.8926084086       -1.8674989096
  C        19.0959039726       16.4923688801       -2.5834095183
  H        10.5858871771       12.3247321842       10.2101728680
  H         9.6906762912       12.7729224547       11.6053354380
  C         9.2062236594       13.9917726521        9.8925299804
  H        19.9954461528       12.9708546089       13.4276877409
  H        19.6695306292       13.4571675991       15.0610952616
  C        20.9306020565       14.8222205197       13.8868704772
  S        14.1771318906        5.6390487689       15.0285590207
  N        13.6740803199        6.0588301954       16.5616421449
  C        13.4060785398        8.1609195553       17.8908087440
  H        13.1956921031       10.1872184914       18.7646002803
  C        19.5203130630       14.4808454588       -3.5591527088
  N        19.3773265598       15.8156223407       -3.6994691488
  O        18.6857839196       17.6395896914       -2.4490088374
  H         8.6417153498       14.7513692740       10.5024971488
  H         9.7270224445       14.4948641163        9.1416349726
  C         8.2488004312       13.0963398610        9.1842910642
  H        21.8214037663       14.1692053323       13.8674802670
  H        20.7418170581       15.3813273574       12.9900265546
  C        21.0439490064       15.7628104137       15.0704036768
  C        13.0338147904        7.3809638120       19.0146014937
  S        20.1470761616       13.5532886951       -4.8681546796
  C        19.4827995465       16.5427097612       -4.9442469690
  H         8.7603796851       12.7215678206        8.3204152922
  H         8.0365047526       12.2360039964        9.8159740915
  C         6.9157169267       13.7543144053        8.9156559939
  H        21.6848208847       15.2795093389       15.7656030471
  H        20.0534147743       16.0104191787       15.4296794555
  C        21.4629411046       17.2343145672       14.6642197270
  H        13.2308540038        6.3052174739       18.8481739307
  C        12.5046110516        7.6710330558       20.2642363563
  H        20.4063388964       16.1091752271       -5.4887724863
  H        19.8490380785       17.5124925510       -4.6571076479
  C        18.1193455134       16.5558186627       -5.7279746867
  H         6.4211814106       13.1197774811        8.1893875572
  H         7.1453577949       14.7689924818        8.4921227136
  C         5.9195330221       13.8219281894       10.0784535877
  H        20.5928657032       17.7123751031       14.1043872285
  H        21.7494598981       17.9286172945       15.4837830288
  C        22.6818032811       17.2078604675       13.7618940783
  S        11.8395568736        9.1959431925       20.8886256032
  C        12.3092427458        6.5929594163       21.2774252990
  H        17.9003866206       17.5389781657       -6.1175512917
  H        17.2167441232       16.3417317906       -5.1540422009
  H        18.1362213110       15.8127049020       -6.5481008179
  H         6.4085629518       13.9600448178       11.0612113876
  H         5.1746580104       14.6463964751        9.9952711539
  H         5.2957791306       12.9392497930        9.9818234859
  H        22.8423566022       18.2083767890       13.3821688048
  H        23.5479570188       16.9152525104       14.4047961664
  H        22.6028906623       16.4939875903       13.0760066557
  C        11.5815269236        8.3625052663       22.3832698268
  N        11.7488347156        7.0263289689       22.4286117490
  O        12.6911450434        5.3980706565       21.1250357709
  S        10.6756883117        8.9998565994       23.7376598729
  C        11.7093459533        6.2163750584       23.6805240782
  H        11.7821488584        5.1021088118       23.4018491259
  H        10.9042814729        6.2943190993       24.4215595320
  C        13.0262316784        6.3763616251       24.4808883167
  H        12.8616810548        6.9959458351       25.3700148194
  H        13.8887773926        6.6799399228       23.8747385284
  H        13.3527133584        5.4069295911       24.9762772681
