352
 i =    54100, time =    54100.000, E =        24.4989207530
  H        11.9589649322        4.8919329465       32.3246790473
  C        11.1798189750        5.5227225759       31.9317678119
  H        10.4914684529        4.8458243911       31.3472441923
  C        11.6069432699        6.7035208952       31.1298757348
  C        10.4260229188        5.8843742777       33.2127035674
  C        11.8399151273        6.1671893895       29.7079880706
  H        10.7312558728        7.3939407243       31.0564142714
  H        12.4821987315        7.1894469914       31.4847011354
  H        10.2400950782        4.9139943989       33.6680314066
  H        11.0182421035        6.4159775519       33.9472796585
  H         9.5770141015        6.5163661958       32.9440292570
  C        10.6395896847        6.0370738254       28.7779781080
  H        12.4917041338        5.2376191889       29.5459960910
  H        12.5802165438        6.8441181559       29.1893269551
  C        10.9960436191        5.7814140653       27.2855338756
  H        10.0740479380        5.1759724351       29.0753628484
  H         9.9853919766        6.9155158270       28.9026272468
  C         9.8868796680        5.1480516480       26.5382376652
  H        11.7613398196        5.1180546471       27.2609084459
  H        11.2114979105        6.7196878104       26.8268000488
  C         8.6801454880        6.0735704429       26.2730311079
  H        10.2182949863        4.7404956790       25.6285480400
  H         9.5556058025        4.2207446482       27.0111781052
  C         7.4314957698        5.3805756506       25.6128115031
  H         8.2674565093        6.4019324131       27.2157399735
  H         8.8930923096        7.0175621903       25.7793178164
  C         7.1022774195        3.9883008055       26.2500287644
  C         7.8130788129        4.7003283909       24.2918479074
  C         6.0975049370        6.1759344654       25.4241229244
  C         7.2070119363        2.9338868246       25.3505278181
  C         6.6241163939        3.5721712589       27.5188916495
  C         7.7059815427        3.3843563537       24.0904580366
  C         8.4156907889        5.3550157075       23.2009247248
  H         6.3216594561        6.8545372512       24.5797477942
  H         5.8343089545        6.6288122105       26.3526745669
  C         4.8626400751        5.5077983260       25.0188124605
  S         6.8162740211        1.4146409222       26.0542464546
  C         6.4661256402        2.2144515854       27.5499724233
  H         6.5420028169        4.2977416658       28.2227044435
  C         8.1165932868        2.7608463764       22.8451004437
  H         8.6564713401        6.3785578997       23.3052633315
  C         8.6381082870        4.8000040358       21.9815824525
  H         5.0617222908        5.1364073222       24.0073522357
  H         4.6851277301        4.6468820030       25.6822890650
  C         3.7233168586        6.4487784496       24.8742586913
  C         6.0244928130        1.5669067363       28.7991566066
  C         8.4485808861        3.4940588500       21.7906496077
  H         8.0812794487        1.6743405206       22.7734252621
  C         9.1547482948        5.2548079158       20.7802259807
  H         3.1174424189        5.9081745054       24.1659855830
  H         3.8635379716        7.3448012737       24.2669349560
  C         2.9536795380        6.5010144615       26.1837190728
  C         5.9866106041        0.1512888971       29.0539728847
  C         5.6656964551        2.3396644919       30.0122443272
  C         8.8934850207        2.8543120745       20.5551647104
  C         9.2492474284        4.2379036291       19.8928230890
  S         9.4562456011        6.8159959095       19.9981040437
  H         2.1348041349        7.2045072469       26.0374701881
  H         3.5374894554        6.9647480608       26.9413528224
  C         2.1714356825        5.2721693998       26.7351682653
  N         6.4126516943       -0.7759345723       28.1189169547
  C         5.5892238951       -0.4626669029       30.2473392249
  C         5.2198220554        1.7826956279       31.2160896949
  H         5.6772756175        3.4271016189       29.9129191564
  C         7.7920124636        2.1081952755       19.7573431811
  C        10.1484586907        1.8915212845       20.7329448190
  C         9.7316309154        4.6294954826       18.6909057742
  C         9.7299262231        5.9860796057       18.5019708773
  H         1.4995377798        4.8411867418       26.0304942538
  H         2.9146092729        4.4828808803       26.8483981246
  C         1.5049664781        5.5217726202       28.0420284482
  S         6.3632858905       -2.2682606361       28.7495020064
  N         5.6187192157       -1.8853610636       30.1943620842
  C         5.2535031677        0.2790921843       31.4295674519
  H         4.9360123923        2.4316474756       32.0021468097
  H         7.4538421090        1.1629382526       20.2506935550
  H         8.1479163331        1.7396218719       18.8026272949
  C         6.4648530472        2.9169711832       19.5429802094
  H        10.4168085854        1.8136953159       19.6140840210
  H         9.8033959461        0.9301348806       20.9933647347
  C        11.3485730347        2.5447729614       21.5132297776
  H         9.9463431360        3.8305944958       17.9611702714
  C        10.1660883872        6.6921708419       17.2423381098
  H         0.9378260955        4.6330445510       28.2068243075
  H         0.8255183988        6.4063124259       27.9506007443
  C         2.4251011712        5.6233988106       29.2072454543
  C         4.8410936518       -0.3375884147       32.6334225450
  H         6.6673412968        3.6909769833       18.7669732051
  H         6.1857131421        3.3833400976       20.5180642766
  C         5.3935826993        1.9764799727       19.0847714673
  H        11.1249130768        2.2645360016       22.5476701076
  H        11.4591217178        3.6053354874       21.4563756912
  C        12.7384750092        1.8682479881       21.2837140632
  C        10.1666896797        8.1246934231       16.9931972264
  C        10.5130867928        5.9158352894       16.0575323001
  H         3.1453987282        4.8314643580       29.2685304560
  H         2.8392862235        6.6332369596       29.0819142479
  C         1.7371340108        5.9115301490       30.6317855965
  H         4.9188649795       -1.4214887273       32.5618384740
  C         4.7168573703        0.0282043629       33.9594558730
  H         4.6394597965        1.6781848450       19.8895084791
  H         5.7619449380        1.1161992173       18.5321183593
  C         4.4410106990        2.7273551495       18.1804545935
  H        12.9182298426        1.4351895431       22.2785858874
  H        12.6773686393        0.9696358624       20.6728846705
  C        13.9093549816        2.7997835792       20.9555596574
  N         9.8132175366        9.1048157375       17.9563923349
  C        10.5091512246        8.5993445312       15.7228126242
  C        10.9105988252        6.3512859795       14.7505549591
  H        10.6282609803        4.8165982982       16.2304368504
  H         0.7573885868        6.4757698947       30.4528254259
  H         1.4823238620        4.9112788120       31.0339440053
  H         2.3614531572        6.4752813527       31.3116468081
  S         4.6505364787        1.6256005766       34.5533681914
  C         4.7423552707       -1.0098222162       34.9883918984
  H         4.2499781710        3.6838984734       18.6063365578
  H         4.8781181513        2.9098841620       17.2022770067
  C         3.0957144458        2.0973340372       18.0489145778
  H        13.7343692903        3.6374894117       20.3190811748
  H        14.7323793048        2.1992106432       20.5265378428
  C        14.4696629347        3.3790139722       22.2188715888
  S         9.7763000492       10.5370739889       17.1271353343
  N        10.2164000698        9.9733254470       15.6732335383
  C        10.8501892440        7.8212813815       14.5273669769
  H        11.2198453105        5.6555776458       14.0182863589
  C         4.5231022718        0.8914386691       36.1256774304
  N         4.5514656485       -0.4770048594       36.2313238815
  O         4.8394627010       -2.1939547026       34.6885728200
  H         2.5464487031        2.7872349796       17.3123854717
  H         2.5736298371        2.0086376397       18.9828491088
  C         3.1171888602        0.8011571033       17.3282636551
  H        14.8594264970        4.3593836997       22.0602568789
  H        13.5635910237        3.5744597299       22.8546346723
  C        15.5672486495        2.5179797269       22.8271590992
  C        11.1541555172        8.4842661303       13.3152869161
  S         4.1073862678        1.7736879739       37.6573396511
  C         4.6038404716       -1.2323716383       37.4580297514
  H         2.8431989348        0.9749031503       16.2544923297
  H         4.1262478805        0.4048801606       17.1573929375
  C         2.1811139620       -0.2408837365       17.9224728920
  H        15.2294069733        1.4889381222       22.9604252050
  H        15.6843851137        2.7715078413       23.8709051289
  C        16.9238540298        2.6860334046       22.1460540198
  H        10.8497606573        9.5407537028       13.2653375340
  C        11.7570365703        8.1592123380       12.1397840150
  H         3.8391910684       -0.9164860856       38.1999349824
  H         4.5169577189       -2.2680847723       37.2353199127
  C         5.8994106213       -1.2215497725       38.0449079860
  H         1.2340487705        0.0379227911       17.5492111944
  H         2.2089856378       -0.4311181616       19.0124366692
  C         2.3581763827       -1.5265463013       17.1240254084
  H        16.9508135621        2.1521328122       21.2432169298
  H        16.9189497939        3.7472842051       21.9831778726
  C        18.2044932595        2.3755517104       22.9258840604
  S        12.1999391304        6.5497998123       11.6860988014
  C        11.8628035729        9.1514640016       11.0444967685
  H         5.7879272022       -1.7297256126       38.9842646925
  H         6.5955706681       -1.8286667216       37.5041280691
  H         6.4012407903       -0.1281133445       38.1467740897
  H         3.4195058373       -1.6383886825       17.3339623453
  H         2.2897608676       -1.4318794071       16.0309287874
  H         1.8129275071       -2.3767852210       17.5117963054
  H        17.9688583024        2.0801870874       23.9777072036
  H        18.9723335789        3.1081176190       23.0052934517
  H        18.6906164888        1.4684204372       22.4472681645
  C        12.5858805801        7.2726164765       10.0957891655
  N        12.4120233618        8.6441298593        9.9659584031
  O        11.4318885518       10.3019383499       11.1771661007
  S        12.9823578420        6.4253416691        8.6121894435
  C        12.6429356560        9.4413624773        8.7570107748
  H        13.0134659859       10.3721008630        8.9502274278
  H        13.5076061727        8.9681536460        8.2813901415
  C        11.3395045490        9.4474946600        7.9668725251
  H        10.4165891812        9.4608865562        8.6274309568
  H        11.2707297103       10.3285825256        7.3862127158
  H        11.3129406848        8.6359933404        7.2931796359
  H        23.5322474256        9.9489316783        2.8743559739
  C        22.8917890392       10.4996123323        3.5517399428
  H        23.2699757100       11.5027524765        3.7485879443
  C        22.7563608016        9.7504074797        4.8641961524
  C        21.5770449627       10.6924028136        2.8522285714
  C        21.6699651850       10.1966996749        5.8739137227
  H        22.3946898414        8.7190115514        4.6029155058
  H        23.7137596119        9.6169731962        5.3657237894
  H        21.0560114405       11.6272921364        3.2635436813
  H        20.8614973560        9.7886105922        2.9486307537
  H        21.7884140670       10.8235486312        1.7975523301
  C        21.2213600118        9.0160677388        6.7227796805
  H        22.1270146529       10.8871924365        6.6153669462
  H        20.8253043705       10.6795063333        5.5115238899
  C        20.5182654762        9.4926098631        8.0092922965
  H        22.0198964902        8.3089686594        6.9435645536
  H        20.5143968834        8.4044681197        6.0764950708
  C        19.2899497132       10.4444527822        7.7075818724
  H        21.2406478432       10.0739520845        8.6648831060
  H        20.1885276267        8.5613551087        8.4237851482
  C        18.1388271367        9.6853453120        7.1143040520
  H        18.9451573415       10.8475025884        8.6520030556
  H        19.5115891950       11.3765294258        7.0612792874
  C        16.8887399630       10.5670590506        6.9546584046
  H        17.9231940513        8.8493990435        7.8134659318
  H        18.3159503095        9.1704419676        6.1092891039
  C        17.3348140209       11.9054419372        6.2223599330
  C        16.4625154109       11.4267338215        8.1690752544
  C        15.6726896557        9.8925932655        6.3238730401
  C        17.1234362286       13.0380429974        7.0132829851
  C        17.9630824539       12.2169533239        4.9831005556
  C        16.5826738029       12.7393537155        8.2669264371
  C        16.0311029577       10.7702979458        9.3520152564
  H        15.7974616200        9.1381388370        5.5583090350
  H        15.1044733056        9.2797345387        7.0495086551
  C        14.6530740309       10.8862942708        5.8630899292
  S        17.7589344651       14.4129163708        6.3229064998
  C        18.1396739570       13.5691601930        4.8628431387
  H        18.1410162569       11.4149229993        4.2722388254
  C        16.2205278471       13.3268586467        9.4377816389
  H        16.0586803851        9.7147489567        9.1972362195
  C        15.6771265121       11.3285427209       10.5609311623
  H        15.1792600712       11.5425066491        5.1343751314
  H        14.2166393444       11.4328018169        6.6959662416
  C        13.4960122960       10.2037612271        5.0462951258
  C        18.4137451417       14.2871203217        3.5493115374
  C        15.7448980955       12.7125108059       10.6150190602
  H        16.3479957346       14.3526875832        9.4441787385
  C        15.2680239158       10.9671008983       11.8031081268
  H        12.7031295775       10.9346727908        4.9846502456
  H        13.0368055730        9.2981099459        5.5396615363
  C        13.9785261340        9.9139194696        3.6161599709
  C        18.2135494431       15.6460356624        3.2980439146
  C        18.7065488084       13.4446050836        2.3787361507
  C        15.3427586358       13.4686577929       11.8817050437
  C        15.0570071317       12.0496126515       12.6167448717
  S        14.8650651130        9.4370579514       12.5610630500
  H        14.4396481664        8.9358393102        3.5482137742
  H        14.7391027347       10.6648385855        3.3295196038
  C        12.7954600424       10.1114032257        2.6298549475
  N        17.7943608446       16.5997121385        4.2387904023
  C        18.5031407289       16.2353786277        2.0907265800
  C        18.8753146321       13.9949287047        1.1018968668
  H        18.8920749418       12.4123531933        2.4669618528
  C        14.0777551093       14.2712256839       11.7081380887
  C        16.4861652728       14.2868040513       12.5729981227
  C        14.6429198302       11.6189256343       13.8654084944
  C        14.6241552097       10.2820497023       13.9899542812
  H        11.8618645898        9.8336840051        3.1850040170
  H        12.6014367853       11.1471160552        2.3496235852
  C        12.8993228466        9.2040539462        1.3962146515
  S        17.9634566256       18.0876740840        3.6411796490
  N        18.4322977002       17.6457695449        2.1188321885
  C        18.8610166212       15.4616852467        0.9460781635
  H        19.1657845659       13.3607043335        0.2982580103
  H        14.1837618613       15.1008880987       11.0461238347
  H        13.8288468100       14.9098928620       12.5814291589
  C        12.8524497843       13.4904956114       11.2849821673
  H        16.9241421094       15.0091523371       11.9084493687
  H        16.0767162927       14.8898185611       13.3185533642
  C        17.6596503736       13.5844258469       13.2800030275
  H        14.4448014965       12.3254170863       14.6297800939
  C        14.2239195186        9.5596611424       15.2634411560
  H        11.8738157151        9.0715242199        0.9352488395
  H        13.4358283760        8.2923703028        1.6889777843
  C        13.6383002325        9.9754121420        0.2991919107
  C        19.2032810146       16.1999876377       -0.2181423579
  H        13.0940458348       12.9297048471       10.4052525987
  H        12.6618378054       12.8636691241       12.1070869791
  C        11.6668048696       14.4422649959       11.0954518203
  H        18.1038290988       13.0304870893       12.4119563047
  H        17.3138757229       12.9439562537       13.9849247058
  C        18.7502683033       14.4730091588       13.8399370234
  C        14.0334301768        8.1621989485       15.4831615050
  C        13.7982393092       10.3654725298       16.4204031834
  H        14.0396859684       10.8335421618        0.6930907538
  H        14.5521022216        9.3259012735        0.0374100020
  C        12.7175154339       10.1699463485       -0.9779409904
  H        19.3022687109       17.2530041802       -0.0575635614
  C        19.4120258528       15.8604493919       -1.5537996217
  H        11.6935246628       14.9538563047       10.1886153983
  H        11.5806949702       15.2090538487       11.8838660466
  C        10.4716445150       13.5428129416       11.0187801355
  H        19.3366004165       14.9669713802       13.1325802050
  H        18.3481282338       15.3864444878       14.2938997608
  C        19.6222551994       13.7838997758       14.8494970346
  N        14.3604648049        7.1950566890       14.5039135936
  C        13.6652530974        7.5635828664       16.6651037960
  C        13.4125545196        9.7649046298       17.6398546002
  H        13.8774955077       11.3728800225       16.3695155310
  H        12.3771255387        9.2932701700       -1.5077716841
  H        13.2300127518       10.7582937925       -1.7272919350
  H        11.8184691093       10.7031050727       -0.7547923485
  S        19.5617223762       14.3213258508       -2.2633851890
  C        19.4744435714       17.0350223854       -2.4954667468
  H        10.6697986133       12.6567117681       10.4456946163
  H        10.3966548623       13.1123407434       11.9636057094
  C         9.1529066358       14.2995511451       10.7420208190
  H        19.6145836535       12.6821515984       14.7943157531
  H        19.2090802034       14.0889036598       15.8144415269
  C        21.0468513178       14.3976959750       14.8999943605
  S        14.2211076679        5.7307700988       15.1862607887
  N        13.7539888927        6.1835186152       16.6512180522
  C        13.3406296399        8.3208959625       17.8493231867
  H        13.1075050466       10.3783058559       18.4378919543
  C        19.7710875804       15.2629298038       -3.7480182085
  N        19.6961736148       16.6228199818       -3.7164027960
  O        19.1497604140       18.1860965775       -2.2192865589
  H         8.5201644805       14.5112511965       11.5832275388
  H         9.3406153445       15.2618216497       10.3276865853
  C         8.3452284052       13.4933569988        9.7228750257
  H        21.7236146838       13.7543114296       15.5011526927
  H        21.4112916976       14.3797916547       13.9038206392
  C        21.1670465678       15.8169157687       15.4449634345
  C        12.9628319968        7.5798864857       19.0220170583
  S        19.9837691578       14.5281344887       -5.3334577656
  C        19.7519789282       17.5453278814       -4.9001751198
  H         8.8157192134       13.4325129729        8.7550369109
  H         8.2324168015       12.4745533701       10.1322418003
  C         6.9922654037       14.0137519284        9.5291581716
  H        21.0675984460       15.6903755858       16.5090415033
  H        20.3828417019       16.3861666479       14.8396134857
  C        22.5013784410       16.6342835767       15.3121434063
  H        13.3532663239        6.5931501393       19.1360629210
  C        12.5842916634        8.0736586329       20.2516252764
  H        20.6577047176       17.1663830278       -5.4822275232
  H        20.0280321151       18.5625495538       -4.5791011255
  C        18.5174944318       17.3710731657       -5.7326293740
  H         6.7768746313       13.9453562915        8.4167893909
  H         6.9087110004       15.1044404589        9.8181683789
  C         5.9195886479       13.3254452154       10.3281544236
  H        22.6062154090       17.4528925442       16.0380806907
  H        23.3812144540       15.9303594745       15.5022077876
  C        22.7266564464       17.3020771289       13.9535528454
  S        12.0305081549        9.6420829038       20.6651372092
  C        12.5165403222        7.1469375703       21.3999919147
  H        18.6189135933       16.9167133620       -6.7566728530
  H        18.0076832770       18.3497608593       -5.7313118872
  H        17.7643669483       16.7683753088       -5.2092195634
  H         6.1580121809       13.2593265055       11.3735722314
  H         4.9242486135       13.7698363287       10.1945299913
  H         5.9518020688       12.2707122661       10.1130510291
  H        22.8621420894       16.5814625426       13.1653552759
  H        21.8799885795       17.8868211342       13.7070836603
  H        23.6293499648       17.9348126859       14.0462308863
  C        11.7381396359        9.0698276944       22.2704728512
  N        11.9941499614        7.8067381020       22.4711557357
  O        12.7797216829        5.9643094654       21.3881691639
  S        10.9353364936        9.9822302262       23.6172620643
  C        11.9974942466        7.0430027122       23.7455698657
  H        11.4404003734        6.0552497486       23.6071111239
  H        11.5049880347        7.5405276237       24.4671410038
  C        13.3954331686        6.7843213394       24.2636772283
  H        14.1676321306        6.8683325388       23.4749949474
  H        13.3703943019        5.8084182676       24.5929208064
  H        13.7296430931        7.3546608722       25.1519445270
