140

  C         9.3362064791        7.5474266459        1.1604376923
  C         8.4710819983        8.3038896782        1.9226172332
  C         7.3108690492        8.8670098870        1.2230761236
  C         6.2156854188        9.5504281276        1.8673974935
  C         5.1741081958       10.1167626259        1.2015626240
  C         8.4789901449        8.5900418357        3.3719620474
  C         9.0438073770        9.7603741181        3.8935781253
  C         8.8660635809       10.1101144893        5.2588008221
  C         8.1839657080        9.2798077129        6.1558520449
  C         7.5821794862        8.1735738807        5.5890522718
  C         7.7802493910        7.8044497962        4.2579859977
  H         6.1963683989        9.4648552011        2.9733544655
  H         4.3684487129       10.5992544852        1.7937032251
  H         9.7559303223       10.3298821865        3.2614146895
  H         9.3478677376       11.0435246191        5.5301339323
  H         7.9301695584        9.6114848119        7.2339917054
  H         6.9790847816        7.5871726556        6.2024031664
  H         7.2258968535        6.9402104642        3.8775532211
  C         9.3450992872        7.5675325934       -0.3071621360
  C        10.3073165008        6.8208988792       -0.9833315532
  C        11.3587231552        6.1918156701       -0.3117081116
  C        11.4744945690        6.3221104347        1.1367857201
  C        10.4806883794        7.0128829588        1.8261868949
  C         7.2447212141        8.8359456882       -0.2349233614
  C         8.3637036275        8.3157467733       -0.9588081423
  C         8.4945637393        8.7295424228       -2.4143217872
  C         9.3374524825        9.8487627608       -2.6568723641
  C         9.3981176140       10.3603746297       -3.9387359810
  C         8.6577462877        9.7625038775       -5.0142732845
  C         7.7824422939        8.6391500331       -4.7747926105
  C         7.6346822617        8.2449890961       -3.4527001428
  H         6.9578746246        7.4154249846       -3.3047062463
  H         7.1445790012        8.1279928830       -5.5254859842
  H         8.7144804807       10.1314549860       -6.0681348005
  H        10.1314043748       11.1521971249       -4.1460779518
  H        10.0333827918       10.2046977971       -1.8747200167
  C         6.1721418279        9.5046725341       -0.9189078845
  C         5.0824687595       10.0705043091       -0.2292082127
  H         4.2197562379       10.4186547208       -0.8123574945
  H         6.1374649983        9.5242218092       -1.9726009928
  C        10.4700559837        6.6472716576        3.2971917199
  C         9.8178422198        5.4742073574        3.6896287329
  C         9.8335272471        5.0440820720        5.0711104024
  C        10.4945756760        5.8578411408        6.0143159940
  C        11.2179869551        6.9798815961        5.5082596097
  C        11.2070827260        7.3851290916        4.2067409508
  H        11.7701293428        8.2369415573        3.9152968233
  H        11.6196957636        7.6754089442        6.2485801966
  H        10.5164611410        5.5831588250        7.0790853970
  H         9.2886349633        4.1187409998        5.2076254091
  H         9.4465647614        4.8764630247        2.8573286462
  C        12.6948814462        5.8974489346        1.6900501546
  C        13.7117798145        5.3218766983        0.9866932421
  C        13.5819644468        5.0474224952       -0.4410884252
  C        12.4518799890        5.4793697822       -1.0513149279
  H        12.4274841441        5.3881121293       -2.1013233683
  H        14.4125764931        4.4906609928       -0.9318514931
  H        14.6744276126        5.0804805731        1.4935663749
  H        12.9371271567        6.0642317508        2.6862765202
  C        10.2214753649        6.4936454934       -2.4475047080
  C         9.1969117798        5.6026660131       -2.7555147913
  C         8.9398365710        5.2481605739       -4.0917944953
  C         9.7515974162        5.6543516113       -5.1154000369
  C        10.8999972492        6.4320311735       -4.7965271389
  C        11.0836310848        6.9752257278       -3.5113759202
  H        11.9318367606        7.5440478004       -3.2404766133
  H        11.5866243654        6.6914066933       -5.6116844219
  H         9.5139352345        5.4736718117       -6.1608522215
  H         8.0331941372        4.6711488080       -4.1311200050
  H         8.5610117394        5.1741846444       -1.9946056428
  C        16.5009759388        7.8374161885        1.2797082934
  C        15.4856248118        8.5289726797        1.9481989735
  C        14.4275607226        9.1229125487        1.2353607744
  C        13.2723520513        9.7350012492        1.8320709409
  C        12.3525742516       10.4270295087        1.1350818155
  C        15.5337909708        8.8022978025        3.4035808118
  C        16.3263518792        9.8836532517        3.8955950183
  C        16.2814371756       10.2476140852        5.2734169051
  C        15.4393084153        9.6412125338        6.1573213051
  C        14.5952584047        8.5962533651        5.6555139349
  C        14.6164067793        8.2190034073        4.3115093960
  H        13.0829244508        9.5926201814        2.9438637127
  H        11.4244384899       10.7249358393        1.5356917573
  H        16.8973115870       10.4997322779        3.2508890733
  H        16.8942561386       11.1034840305        5.5959329507
  H        15.5029277310        9.8516353241        7.2218564869
  H        13.8046699098        8.1866322742        6.2299015962
  H        14.0201759618        7.3996851140        3.8730979810
  C        16.4699128679        7.7823866603       -0.1726180695
  C        17.4856236440        6.9187171041       -0.8734136927
  C        18.5719264142        6.4718362493       -0.0907246162
  C        18.5602254798        6.5131788192        1.3412742641
  C        17.4968715234        7.1106246016        2.0476165076
  C        14.4629450261        9.1798068148       -0.2499379183
  C        15.5973571925        8.6154940028       -0.9581281798
  C        15.7030446205        8.9790771022       -2.4245789042
  C        16.4513006686       10.0612583215       -2.8460159771
  C        16.2478942057       10.5507064225       -4.1466562328
  C        15.4027180792        9.9119541571       -5.0903740344
  C        14.6300677717        8.8260977019       -4.6542681289
  C        14.8190480378        8.2994710978       -3.3321675873
  H        14.3002155508        7.3919320914       -2.9921357477
  H        13.8889692220        8.3414169848       -5.3054536496
  H        15.2116259486       10.3620088192       -6.0562931750
  H        16.7102888499       11.5712050608       -4.3724984754
  H        17.0100498865       10.5693451638       -2.0455143530
  C        13.4991497137        9.9925983594       -0.9607859440
  C        12.5127440871       10.6924464995       -0.2574946543
  H        11.9033267066       11.4423501452       -0.7442864004
  H        13.4383583293       10.0408799007       -2.0301485677
  C        17.4887912779        6.8244754507        3.5540974416
  C        16.5733874975        5.9394706584        4.0466262433
  C        16.6715352307        5.5232959985        5.3731525964
  C        17.5409363698        6.1617710659        6.2542341533
  C        18.4467163357        7.0893657505        5.7173882244
  C        18.4051103456        7.4944157733        4.3825843955
  H        19.0183467817        8.2822373977        3.9905344979
  H        19.1561074593        7.5430464576        6.4105696031
  H        17.7241965629        5.9190277443        7.2954762217
  H        16.0318514262        4.7401639044        5.7544065005
  H        15.7269967202        5.6901109703        3.4379164895
  C        19.6486963158        5.8694521270        2.0802217013
  C        20.7045874589        5.3298136251        1.3956520697
  C        20.6889224989        5.3286581340       -0.0269795203
  C        19.6606031929        5.8521596324       -0.7567167184
  H        19.5714872939        5.7983392194       -1.8293423276
  H        21.5938057614        4.8714443770       -0.4073205994
  H        21.6076772536        4.8961968307        1.9762616363
  H        19.6723566900        6.0534982282        3.1437049271
  C        17.4442298314        6.6507746599       -2.3347063754
  C        16.6383162347        5.6181963877       -2.8658800078
  C        16.7970376877        5.0981244763       -4.1182678638
  C        17.6915711842        5.7122945349       -4.9909897956
  C        18.4633476946        6.8422027414       -4.5220931763
  C        18.3944297748        7.2829511904       -3.1971747142
  H        19.0367255143        8.1390182294       -2.8698476540
  H        19.1793237693        7.3213557878       -5.3196608601
  H        17.9095481457        5.3130571483       -5.9786151671
  H        16.1509227434        4.2885035507       -4.4622987840
  H        16.0623925121        5.0241049298       -2.1447434858
