140

  C         3.3020485348        0.0829179276       14.6339694540
  C         4.4158178899        0.6229512506       15.3248410758
  C         5.4917494014        1.2139037602       14.6585613044
  C         6.5376639500        1.8701252611       15.4281837623
  C         7.6456284739        2.4978542905       14.7880068256
  C         4.3867074449        0.9265286354       16.8482699190
  C         3.6175208847        2.0013160608       17.3863712551
  C         3.6852913963        2.3667834038       18.7273456543
  C         4.6098281560        1.6804686096       19.5394714339
  C         5.3078756482        0.5583829663       19.0593199788
  C         5.2349115274        0.1450612238       17.7164138762
  H         6.4981308060        1.8106758449       16.4676725011
  H         8.4209092134        2.8427533686       15.4908092913
  H         2.7602967080        2.4346333776       16.8161135217
  H         3.0651799917        3.1671134949       19.0701617055
  H         4.7065859129        1.9348773491       20.6281073107
  H         5.9192330892       -0.0626171858       19.7221065071
  H         5.8508224775       -0.6536673319       17.3281471383
  C         3.3402513131        0.1499746753       13.1635906783
  C         2.2824007139       -0.4477619831       12.3964447837
  C         1.1304838070       -0.8512666665       13.0998023441
  C         1.1230809061       -0.9646105656       14.5536969219
  C         2.2261810009       -0.5072902105       15.3197027536
  C         5.5993863975        1.3413517943       13.1859287043
  C         4.4841305782        0.7799596070       12.5241799947
  C         4.3365509447        1.1747404328       11.0847249209
  C         3.4917018046        2.2907886913       10.9727109280
  C         3.3219637508        3.0438148208        9.7818627986
  C         4.0147905977        2.5961171657        8.6530433708
  C         4.7772340863        1.4438827279        8.7948319595
  C         4.9449850164        0.7135879523        9.9604160514
  H         5.4935629282       -0.1982665695       10.0783891183
  H         5.3435754727        1.0877621637        7.9323529302
  H         3.9115025625        3.0543700274        7.7074218665
  H         2.6401583167        3.8972026877        9.7121775334
  H         2.9462567104        2.5451230235       11.8988309141
  C         6.5650867776        2.1594401507       12.5738284764
  C         7.5621364343        2.7184679174       13.3851214547
  H         8.3061602453        3.3527659787       12.8985162844
  H         6.5277758157        2.2408062526       11.4859656487
  C         2.2105032506       -0.9831857640       16.7070101077
  C         3.0076506406       -2.0857424523       17.0859924197
  C         2.9179980546       -2.6339746511       18.4088694317
  C         2.1919131997       -1.9269781886       19.3813018978
  C         1.4174496055       -0.8450472188       19.0081688594
  C         1.3671083600       -0.3771750886       17.7139978501
  H         0.6922900043        0.3722332253       17.3041851950
  H         0.8148411119       -0.2908087700       19.7979925993
  H         2.2380501301       -2.3943642545       20.3456625100
  H         3.2845904170       -3.6334359636       18.6047114436
  H         3.4506127938       -2.7193187888       16.3277046665
  C        -0.0191209694       -1.6508725731       15.1158391367
  C        -1.1324370386       -2.1504852267       14.4678260066
  C        -1.0382772390       -2.0837510704       13.0245873927
  C        -0.0194595855       -1.4492986392       12.4447337697
  H         0.0249483364       -1.5821122964       11.4043180807
  H        -1.7528906467       -2.6299056663       12.3568351201
  H        -2.0637951958       -2.5048949517       14.9231405487
  H        -0.0192070206       -1.7993123721       16.2246398959
  C         2.3991027598       -0.8257553606       10.9614851022
  C         3.3324734667       -1.7857118019       10.3828770648
  C         3.0961117887       -2.3739705366        9.1629578958
  C         1.9924339864       -2.0126023927        8.3126709004
  C         1.2581845005       -0.9198448182        8.7095176031
  C         1.4901613935       -0.3298162995        9.9970710996
  H         0.8617463862        0.4669701884       10.2299516755
  H         0.5225229484       -0.4179318216        8.0191299294
  H         1.7133457735       -2.5200295554        7.4079682222
  H         3.8163353693       -3.1945100737        8.9791146026
  H         4.2444978469       -2.1211133219       10.8989554151
  C        10.6988569148        0.3429628026       14.6357071893
  C        11.7678455663        1.0047618526       15.3379820028
  C        12.8322044572        1.5785546913       14.6537242237
  C        13.9836773050        2.1498559746       15.3201914973
  C        15.0974140097        2.5236974288       14.6265846802
  C        11.6527518602        1.2552819357       16.7722947653
  C        10.7881968056        2.2496256324       17.2450115771
  C        10.8123422479        2.6211658593       18.6311196768
  C        11.6383271354        1.9641198517       19.5073416558
  C        12.5153947296        0.9830681860       19.0125129692
  C        12.5460727762        0.7042169135       17.6904997175
  H        13.8033570307        2.4065309111       16.3676977929
  H        16.0128771208        3.0030486787       14.9751311862
  H        10.0190494683        2.6715697690       16.6720031277
  H        10.2920437804        3.5419597229       19.0106243006
  H        11.6316837495        2.1611266530       20.5832359865
  H        13.0306977140        0.3985658095       19.7726484650
  H        13.2242437288       -0.0596532035       17.2779093574
  C        10.6310652458        0.3391774674       13.1930390331
  C         9.6356938113       -0.3673657059       12.4752771369
  C         8.5346568495       -0.8229552901       13.2417483695
  C         8.6031312668       -0.9557093777       14.6556225963
  C         9.7061744581       -0.3725303234       15.3104718464
  C        12.8548970227        1.4668176169       13.1719580880
  C        11.7277945263        0.9953403601       12.4887087384
  C        11.6026621048        1.2446891854       11.0350418660
  C        10.8871408499        2.3722176064       10.6280584998
  C        10.8795819069        2.7598591187        9.3060017317
  C        11.4256978155        1.9850229981        8.3237608083
  C        12.2197490283        0.8662517098        8.7053744055
  C        12.3060537487        0.5729795957       10.0520171371
  H        12.9343302603       -0.2323410211       10.4467241668
  H        12.8333434863        0.3732768834        7.9471861086
  H        11.4234522465        2.2350139392        7.2349837140
  H        10.2982285470        3.6385272049        9.0958954374
  H        10.3383328454        3.0216501508       11.3295641419
  C        14.0117201219        2.0240783074       12.4866938582
  C        15.0852065632        2.4167613178       13.2142134964
  H        16.0248279062        2.6245714114       12.7391861687
  H        14.0347063268        1.9320326477       11.3764917325
  C         9.7981017678       -0.7536973431       16.7380477475
  C        10.5405137686       -1.8790906308       17.0625836965
  C        10.6256979287       -2.3766635519       18.3734880949
  C         9.7878910848       -1.8406149570       19.3635026638
  C         8.9216804393       -0.8261087862       18.9985251282
  C         8.9535502065       -0.2606817002       17.7612252291
  H         8.3309571081        0.6170314544       17.5532861351
  H         8.1336088956       -0.5303994634       19.7089654467
  H         9.7332498585       -2.1281710885       20.4082702769
  H        11.2837106218       -3.1942690985       18.4786924759
  H        11.1043592072       -2.3144486241       16.2497426456
  C         7.6084983131       -1.8698113944       15.3115769060
  C         6.5956559135       -2.4615432775       14.6487966470
  C         6.3886629455       -2.2307300926       13.2422475109
  C         7.3720913215       -1.4847520468       12.5846665541
  H         7.1203001915       -1.2569837776       11.5842155829
  H         5.4834278537       -2.6165118894       12.7403314180
  H         5.8095403329       -3.0269139982       15.2104463203
  H         7.7865484927       -2.0011228320       16.3848928608
  C         9.5154029501       -0.5493424005       10.9966085378
  C        10.0712399816       -1.6714401365       10.3633612876
  C         9.6808496952       -1.9986789902        9.0953481787
  C         8.8770520873       -1.1661243239        8.3088776637
  C         8.3666492071       -0.0240359010        8.9050275460
  C         8.6553541349        0.2823524290       10.2826670541
  H         8.1066955728        1.1396932998       10.7632262113
  H         7.8087273808        0.6891385124        8.3032410401
  H         8.5778836752       -1.4860960078        7.3271197810
  H        10.0313652201       -2.8941188466        8.6134358662
  H        10.7487749616       -2.3765212099       10.8368363441
