140

  C        11.9387118777        6.2236508566        0.4876614375
  C        10.8170488768        6.7846239358        1.2165480199
  C         9.6495826481        7.3144799383        0.5297824114
  C         8.4836334017        7.8679209786        1.1917824191
  C         7.5190514999        8.5115217990        0.4914291761
  C        10.8706051923        7.0617520579        2.7220984696
  C        11.5995484080        8.1350392092        3.2407166881
  C        11.3249031683        8.5562064866        4.6058070216
  C        10.4000862079        7.8944096905        5.4236688650
  C         9.6574013748        6.8400521460        4.8232593886
  C         9.9452920293        6.3670445002        3.5707723036
  H         8.4207089177        7.6633500064        2.2744007842
  H         6.5912849282        8.7704888128        0.9919471636
  H        12.3680328015        8.6339430054        2.6859716620
  H        11.8073652206        9.4138883323        5.0144186712
  H        10.0690452536        8.0755391090        6.3937818503
  H         8.8863953134        6.3226496624        5.5147939090
  H         9.4356516400        5.5592931966        3.0827690732
  C        11.8873412936        6.3233345276       -0.9847506377
  C        12.8883957515        5.6131950979       -1.8157930202
  C        13.8676197208        4.8152888670       -1.1956572070
  C        13.9320593770        4.8207831775        0.2225178131
  C        12.9953717475        5.4679645888        1.0867641649
  C         9.7146799538        7.5219799238       -0.8977780940
  C        10.8580934185        7.0538875055       -1.5862445579
  C        10.8717152473        7.4389282656       -3.0739959735
  C        11.8173412125        8.3984691432       -3.7084850022
  C        11.8195456847        8.6397783036       -5.0646429539
  C        11.0551741275        7.8168522893       -5.8706621506
  C        10.0305227733        6.9912444977       -5.3152475449
  C         9.9768161103        6.7390459868       -3.9445312511
  H         9.2980491471        6.0942014671       -3.4821934379
  H         9.4121548476        6.3659837162       -5.9926062874
  H        11.1881097796        7.9037126160       -6.9194234350
  H        12.4729375934        9.3880034315       -5.4461795153
  H        12.4524470708        8.9210110072       -3.0773948063
  C         8.6700442267        8.1454179198       -1.5981251606
  C         7.5872216453        8.5965041857       -0.9059337488
  H         6.8331045648        9.0479285385       -1.5473107310
  H         8.8247425939        8.2425018199       -2.6993402297
  C        12.9246661395        5.1177805335        2.5085262503
  C        12.2227981832        3.9564688901        2.9403535480
  C        12.1236926947        3.5958065611        4.2736016815
  C        12.7494946779        4.3444536477        5.2511960333
  C        13.5822954146        5.4193782024        4.8366592255
  C        13.6774496926        5.7535943259        3.4828112276
  H        14.2177281235        6.7136588661        3.1760898529
  H        14.1644789660        5.9561869441        5.5187763292
  H        12.8497200965        4.1055597026        6.3499695048
  H        11.5393509913        2.6819799511        4.4328551988
  H        11.7977549191        3.3191430912        2.1803150393
  C        14.9609092018        4.1176681882        0.8459422483
  C        15.8898706578        3.4332442802        0.1174781035
  C        15.8979856395        3.4296403946       -1.2809236593
  C        14.8759806559        4.1212703946       -1.9371783340
  H        14.9049998472        4.0224520170       -3.0291456830
  H        16.6333297110        2.8937334150       -1.8727503520
  H        16.6423578187        2.8876941253        0.6244924653
  H        14.9881662176        4.0114699569        1.9769422097
  C        12.5191579298        5.1629739945       -3.1931621850
  C        11.6205096631        4.0973614738       -3.2967281758
  C        11.3843512971        3.4194796678       -4.5178461892
  C        12.0550789341        3.7624663862       -5.6436169394
  C        12.9358452498        4.8760183701       -5.6004836515
  C        13.2184623703        5.5200276866       -4.3180255549
  H        13.9823629740        6.2880023039       -4.2269987321
  H        13.5897964354        5.1542545049       -6.4927180406
  H        12.0380775181        3.2237365396       -6.5598492303
  H        10.7382636054        2.5517595809       -4.2939623306
  H        11.1845256877        3.8018594482       -2.3096065130
  C        19.0267478330        5.9505919948        0.3300334143
  C        17.9963689010        6.6019497651        1.1070982216
  C        16.8796934497        7.1568986630        0.4628896211
  C        15.7523171609        7.7590941132        1.1614531347
  C        14.8445038086        8.4211475475        0.4268395054
  C        18.1132524652        6.8079058067        2.5654771312
  C        18.9548116123        7.7907787078        3.1345362185
  C        18.8703939741        8.1687096154        4.4728594002
  C        17.8268916921        7.7355709085        5.2695533357
  C        17.0464708359        6.7038818693        4.7699465946
  C        17.2431934988        6.2203404865        3.4984441023
  H        15.6971705794        7.8413112701        2.2358665581
  H        13.9765341482        8.8275560766        0.9366880224
  H        19.6687231509        8.1755385435        2.4122836731
  H        19.5674187956        8.9407262925        4.8432811346
  H        17.7264525068        8.0114974893        6.3125756986
  H        16.2628131294        6.2413712666        5.4416710662
  H        16.6114374771        5.3516964298        3.2534092446
  C        19.0567302955        5.9351826809       -1.1623806245
  C        19.9752406470        5.1327447837       -1.8850608494
  C        21.0133302149        4.5114884227       -1.1283285499
  C        21.1012402123        4.5503516426        0.3018330135
  C        20.0567927062        5.1713355202        1.0109219343
  C        16.9499887527        7.2464772710       -1.0011713803
  C        18.0280524369        6.6961214747       -1.7615415932
  C        18.1713033466        7.1515946665       -3.2103483312
  C        19.2648907045        8.0035308158       -3.4736189513
  C        19.3471341388        8.6287659870       -4.7288583801
  C        18.5553260071        8.1790163005       -5.8138151136
  C        17.4486498715        7.3448384313       -5.5292810267
  C        17.2715357605        6.8335037552       -4.2530627814
  H        16.4200232448        6.2298136283       -4.0612859859
  H        16.6569450208        7.1657741997       -6.2523347163
  H        18.5826248923        8.5780792562       -6.8209605232
  H        20.0110578583        9.5102975601       -4.8558127447
  H        19.8703597873        8.1983474558       -2.6514104647
  C        15.8951948116        7.8715390277       -1.6605852762
  C        14.8704573183        8.4321130549       -0.9512123510
  H        14.0606065950        8.9155972489       -1.4929508335
  H        15.9905844752        8.0756741665       -2.7402779443
  C        20.0869815431        4.9584893660        2.4825804523
  C        19.2330881923        3.9347648429        2.9691779759
  C        19.3504417505        3.5716125171        4.3273927807
  C        20.1638231897        4.1964162653        5.2631722507
  C        21.0664009120        5.1368577661        4.7150038230
  C        21.0667729124        5.5277289742        3.3469243555
  H        21.7206535274        6.2427670127        2.9443649865
  H        21.8780486025        5.5629250277        5.3191747000
  H        20.3052320378        3.7719022255        6.2157217198
  H        18.6734179030        2.7636475178        4.7038555350
  H        18.6452153446        3.4206067011        2.2606196115
  C        22.2664162345        3.9928670498        0.9582480464
  C        23.3282670829        3.4945138133        0.2463695574
  C        23.2759307362        3.5442090768       -1.1781013081
  C        22.1110996791        3.9444094166       -1.8271887323
  H        22.0261274236        3.8924029747       -2.9083048771
  H        24.1370975129        3.1615566041       -1.6993469353
  H        24.2283240023        3.0586589409        0.7142968613
  H        22.2318107613        3.9536867767        2.0619907521
  C        19.8799531559        4.8470198991       -3.4220720231
  C        19.0020213277        3.8699111708       -3.9017554350
  C        18.9898876316        3.4885359883       -5.2169209901
  C        19.9193251873        4.0590789332       -6.1117197472
  C        20.8064234797        5.0126419625       -5.6629732433
  C        20.7625687975        5.4335215401       -4.3352037708
  H        21.5178389973        6.1591400017       -3.9647353588
  H        21.3949632461        5.5495950678       -6.4041142781
  H        19.8590699119        3.7359095460       -7.1007332682
  H        18.3306102588        2.7448115621       -5.6066246245
  H        18.2322663607        3.5765969900       -3.2004051594
