140

  C         2.2542996496        0.7065352286       14.7000234124
  C         3.2948793638        1.4031554301       15.3731037983
  C         4.3272473879        1.9829628486       14.6543094343
  C         5.5619085432        2.5295801667       15.3042302329
  C         6.6468945211        2.9488898248       14.5438864831
  C         3.2736217141        1.6905801839       16.8041953923
  C         2.6708249597        2.8819843777       17.1541208401
  C         2.7575095147        3.3201294989       18.4883594101
  C         3.6066914776        2.6819370520       19.3673225593
  C         4.2478508625        1.4862365949       18.9844452738
  C         4.1217300305        0.9968091582       17.6839543087
  H         5.6268565896        2.4234423186       16.3457683007
  H         7.5288206015        3.3650592073       15.0176466940
  H         2.0847188488        3.4545036069       16.4421820576
  H         2.2181469929        4.2012244186       18.7565440196
  H         3.8417948399        3.0775065190       20.3518264748
  H         4.9534022677        1.0415636756       19.6902083061
  H         4.5410279188        0.0857142566       17.2532284728
  C         2.1736641063        0.6650264269       13.2477157888
  C         1.0934726080       -0.0655999970       12.6259726419
  C         0.0937859746       -0.6952192568       13.3535563229
  C         0.2439165769       -0.7556364520       14.7951032186
  C         1.3203560721       -0.0987017617       15.4192149101
  C         4.3343352226        1.8850036517       13.1802181077
  C         3.1075285460        1.4255932460       12.5242517599
  C         3.0011621602        1.7347307499       11.0481852367
  C         2.1590264416        2.7728874064       10.5674295156
  C         2.3299377352        3.1353102630        9.2439550146
  C         3.3296745620        2.6104433460        8.3871674645
  C         4.1811353827        1.6604230093        8.9287920033
  C         3.9682270481        1.2036239839       10.2690863494
  H         4.6739761824        0.5087952193       10.6823708478
  H         5.0078585994        1.2658924349        8.3173697737
  H         3.6386489822        3.0618046021        7.4244299687
  H         1.6741065673        3.8921484016        8.7777121376
  H         1.5082258167        3.3378737208       11.1776708640
  C         5.4507440149        2.4733829328       12.4509903573
  C         6.5907909819        2.9229649164       13.0625291899
  H         7.3839233748        3.3311335384       12.4670194501
  H         5.3471005733        2.4045991885       11.3788053798
  C         1.4316003905       -0.3072919855       16.9100955758
  C         2.1957484213       -1.3114432498       17.4850415510
  C         2.0825729206       -1.7538255906       18.8094997387
  C         1.0980613723       -1.1744006081       19.6119639111
  C         0.3641089232       -0.1281334194       19.0770713986
  C         0.5879357496        0.3617776164       17.8152254817
  H        -0.0210443231        1.1974100462       17.4299176663
  H        -0.3914624444        0.4590784209       19.6578455448
  H         0.9003280595       -1.4107175019       20.6248168970
  H         2.8126899586       -2.4357197004       19.2310706463
  H         3.0230518550       -1.6686834221       16.9102126702
  C        -0.8266908151       -1.2962255697       15.5814153343
  C        -1.9023735952       -1.8537774443       14.8935475367
  C        -1.9436011095       -1.9887362592       13.4592413274
  C        -1.0332126753       -1.3413146067       12.6823217238
  H        -1.1577427356       -1.0873610832       11.6273555202
  H        -2.8784866502       -2.4899164146       13.0813596377
  H        -2.8018259961       -2.1022736122       15.3902344861
  H        -0.7185530398       -1.2269656580       16.6853864803
  C         1.1846288629       -0.4841641818       11.1908859869
  C         1.8321989386       -1.7518821404       10.8277155576
  C         2.1767728254       -2.0946302407        9.5122770718
  C         1.7683161983       -1.2211553670        8.4786714667
  C         1.0105763039       -0.1242712238        8.8882825510
  C         0.5910192711        0.1926054901       10.1932770640
  H         0.1990319611        1.1535602120       10.4688325794
  H         0.6375781503        0.5893483265        8.1809891494
  H         2.0509254141       -1.3555006829        7.4297458721
  H         2.7672546693       -2.9873563246        9.3169865080
  H         2.2931149896       -2.2961415117       11.6141703515
  C         9.5571338980        0.4922703395       14.7612687720
  C        10.6786894020        1.0614617698       15.4109531476
  C        11.7914722669        1.7018286947       14.7606231109
  C        12.9650253007        2.1769805669       15.4177644174
  C        14.0052849386        2.7904912834       14.7047315356
  C        10.6971204069        1.4113081021       16.9316577126
  C         9.8806855253        2.5021688497       17.1674555629
  C         9.5974652278        2.9519475724       18.4609629978
  C        10.3220465551        2.4210708670       19.4937489916
  C        11.2767939145        1.4032632162       19.3061705210
  C        11.4154579832        0.9057988285       18.0341324237
  H        13.0009909046        2.0669124802       16.5236236150
  H        14.9605217314        3.0719230103       15.1417105079
  H         9.2522189912        2.8180277950       16.3546648575
  H         8.8126951564        3.7182102064       18.5977960987
  H        10.0857324635        2.7428671195       20.5186394626
  H        11.7649347736        0.9344706568       20.2101335681
  H        12.0081860509        0.0114903875       17.7595459634
  C         9.6245614178        0.5407005535       13.2626699199
  C         8.4501410969       -0.0588148592       12.5145951491
  C         7.3674677050       -0.5784165783       13.2500661577
  C         7.3805537717       -0.6105301616       14.6950180490
  C         8.4865131670       -0.0983891254       15.4586976703
  C        11.7303704947        1.8298833268       13.3557093379
  C        10.6567958553        1.2569777358       12.5800489368
  C        10.7349090613        1.4627997346       11.1328664516
  C        10.0799737569        2.5376152752       10.4621081687
  C        10.0778117195        2.6436966912        9.0791471724
  C        11.0724755215        1.9206652541        8.3493341682
  C        11.7101987806        0.8764021120        8.9473724826
  C        11.5193695559        0.6022421667       10.3218111873
  H        11.9821029109       -0.2688077504       10.7844937937
  H        12.3672761321        0.2240130627        8.4069601234
  H        11.2669028126        2.1498848206        7.3242130965
  H         9.4979200550        3.4207003193        8.5787187107
  H         9.4735820253        3.1151535165       11.1232016428
  C        12.8315139714        2.5041724282       12.6980319616
  C        13.9243461555        3.0390371230       13.3369870137
  H        14.7339787141        3.6183025427       12.8496191591
  H        12.7782839097        2.6556951866       11.6184983995
  C         8.5063135453       -0.4930019865       16.8787936866
  C         9.2375328710       -1.6573716400       17.2361484778
  C         9.1824946401       -2.2612867505       18.4649653659
  C         8.4076041545       -1.6174791032       19.4238472343
  C         7.6603439243       -0.4499379994       19.1013686691
  C         7.7123884039        0.1354890089       17.8295796786
  H         7.2840077943        1.0785940114       17.5073665849
  H         7.0296538207        0.0257743600       19.8092332992
  H         8.3311320485       -1.9424508406       20.4906968449
  H         9.6518803555       -3.2605238438       18.6821508248
  H         9.8500907768       -2.0814413386       16.4329632261
  C         6.3259647829       -1.3710395166       15.3292316736
  C         5.2559541379       -1.8705126485       14.6785869794
  C         5.1289321647       -1.6879311598       13.2706030936
  C         6.2024348129       -1.0759087817       12.6217618911
  H         6.1431922643       -0.8179576953       11.5730141293
  H         4.2446858378       -1.9936551217       12.6327372332
  H         4.5619137643       -2.5219801974       15.1640943433
  H         6.4586922351       -1.6029653922       16.4104852417
  C         8.5852159381       -0.4513601377       11.1005094037
  C         9.3396419762       -1.5468926454       10.5994324210
  C         9.1580343716       -1.9372562380        9.2916071506
  C         8.2926909214       -1.3437679707        8.3931714067
  C         7.6178283581       -0.1896090240        8.8587721699
  C         7.7146096067        0.1797992124       10.1552695241
  H         7.1650547997        1.1023091931       10.4210821738
  H         6.8970496235        0.3585443996        8.2431357043
  H         8.2752592161       -1.5971921738        7.3364135292
  H         9.7650423429       -2.7430842488        8.9103326742
  H        10.1059764483       -2.0243985628       11.2465425058
