140

  C        12.9001180002        6.8307597337        2.5319259823
  C        11.8705264280        7.5666801516        3.1896440803
  C        10.8020179718        8.1729739625        2.4357634455
  C         9.6741601263        8.7465905439        3.0521188186
  C         8.6901238859        9.3083441110        2.3322339980
  C        11.9422762544        7.9743236304        4.6601421924
  C        12.7186059518        9.0751251470        5.1359550046
  C        12.7106650109        9.4200818324        6.4842515330
  C        11.9358244553        8.7000975381        7.3843394169
  C        11.2091643206        7.5527107595        6.9614779135
  C        11.2486821424        7.2040843658        5.6100155313
  H         9.6512893616        8.8473651375        4.1522279575
  H         7.7820074921        9.7300612593        2.7693046211
  H        13.2895526757        9.7103779634        4.4221002455
  H        13.2854780810       10.2172435931        6.8110249401
  H        11.9764325873        8.9930466848        8.4469438208
  H        10.4911529465        7.1131423750        7.6373716378
  H        10.6200740509        6.3477381017        5.2023550250
  C        12.8623755596        6.7450384080        1.1021311378
  C        13.8488195344        5.9136713140        0.4478130417
  C        14.9276767209        5.3336281494        1.1892881471
  C        14.9470888604        5.3942642839        2.6407126178
  C        13.8610142156        6.1320321536        3.3112260011
  C        10.8805153368        8.1818845931        1.0362403791
  C        11.9206138166        7.5177287399        0.3691063134
  C        12.0554305842        7.8367720498       -1.1203823508
  C        12.8522352183        8.9486120631       -1.2821213018
  C        12.8453007531        9.6530852372       -2.4673445137
  C        12.1014971847        9.2329620487       -3.5176486758
  C        11.2182868428        8.1012866381       -3.3883412623
  C        11.2685939869        7.3498926940       -2.1912649738
  H        10.6946207865        6.4570326280       -1.9720818976
  H        10.5031731855        7.8617876812       -4.2220520026
  H        12.0021719357        9.7150733056       -4.5016803536
  H        13.4629972958       10.5822335559       -2.5319695976
  H        13.4816530367        9.3616231417       -0.5262924281
  C         9.8278180086        8.8268443493        0.2370527191
  C         8.7331005935        9.2662496486        0.8865288666
  H         7.9084216596        9.7469861633        0.3318858725
  H         9.8542088089        8.6940459561       -0.8459255343
  C        13.8329905362        5.9460434235        4.7781884327
  C        13.2732278328        4.7221668245        5.2828979022
  C        13.3574109553        4.3911803418        6.6298193764
  C        14.0934055876        5.2055870889        7.4688032011
  C        14.8229813105        6.2885096167        6.9836244126
  C        14.6279224430        6.6675977312        5.6575043804
  H        15.1348954890        7.5227990135        5.2608547145
  H        15.4517308646        6.9252727392        7.6380825057
  H        14.0272279531        4.9896745866        8.5216358465
  H        12.8931711202        3.5576322020        7.1017376899
  H        12.7810265537        3.9968684158        4.6615937736
  C        15.9094924022        4.6639641194        3.4322305166
  C        16.9464705302        4.0331443984        2.8166705310
  C        17.0428153071        4.1083384320        1.3811632305
  C        16.0165200587        4.5768140330        0.5600830506
  H        16.1131057105        4.5736317616       -0.5144538130
  H        17.7814793706        3.5336428899        0.8322371875
  H        17.6781863979        3.5424968821        3.3875889134
  H        15.6493906530        4.5655977582        4.4837642245
  C        13.7098289822        5.5852929937       -1.0042465287
  C        13.0269165277        4.4415928009       -1.5029348345
  C        13.1200205700        4.0264287476       -2.8114128615
  C        14.0472166273        4.6496984119       -3.6485086945
  C        14.8525064868        5.6719394630       -3.1421304284
  C        14.6359271414        6.2227708065       -1.8660276806
  H        15.1611513507        7.0839322653       -1.4027560840
  H        15.6312797609        6.1795571126       -3.6903882965
  H        14.3054411331        4.3165944255       -4.7040879700
  H        12.5554554468        3.2039653922       -3.1744545150
  H        12.3002391684        3.9437478474       -0.8980539632
  C        20.0773357529        6.5160685731        2.7894429792
  C        19.0786265315        7.2311835475        3.5346305142
  C        18.0146367774        7.8732730208        2.8486522667
  C        16.9927984841        8.5505243686        3.5158121571
  C        15.8984021559        9.0808477813        2.7816490503
  C        19.0669720367        7.4822022817        5.0140767347
  C        19.7663262407        8.6196030236        5.3707956073
  C        19.7635213904        9.0495908119        6.6745178020
  C        18.9208088958        8.3682848539        7.6181165279
  C        18.2326546072        7.1981502013        7.2923729156
  C        18.2852775085        6.7723774773        5.9548804227
  H        17.0700416278        8.7566740779        4.5565455369
  H        15.2007483718        9.7189943336        3.3173588438
  H        20.4277337569        9.1876695713        4.7198734028
  H        20.3679993012        9.9468331339        6.9910024271
  H        18.8825856151        8.8337103818        8.6269429960
  H        17.6194620134        6.6241803108        7.9626006365
  H        17.7043752330        5.8886153631        5.7100225870
  C        20.0509144785        6.4869637163        1.2915219633
  C        21.0582562109        5.7565453746        0.5420570923
  C        22.1430130868        5.1971602796        1.2351169157
  C        22.2376411362        5.2603941154        2.7397724652
  C        21.1576618746        5.8174279084        3.4740311441
  C        18.0038072229        7.8962981580        1.3640124716
  C        19.0943422484        7.2388605515        0.6267032098
  C        19.1697773214        7.5317522720       -0.8169343329
  C        19.9034823348        8.6527344104       -1.2230351986
  C        19.8902413195        9.1010974934       -2.5097163356
  C        19.0585827787        8.5301962915       -3.4929127879
  C        18.1912545278        7.4869274694       -3.0842616334
  C        18.2736040542        6.9524247891       -1.7855591966
  H        17.5879502609        6.2098313886       -1.4482859312
  H        17.4519258999        7.0512598621       -3.7284585399
  H        19.0887625297        8.8304959118       -4.5376912695
  H        20.4551776043       10.0130373425       -2.7035389538
  H        20.4141465247        9.3013453034       -0.4876632382
  C        16.8607197511        8.4906547959        0.7266906308
  C        15.8015653511        9.0349006605        1.4014971038
  H        14.8629361550        9.4155116041        0.9119349950
  H        16.7499317956        8.5698085898       -0.3608649282
  C        21.0230349527        5.4237311984        4.9203090216
  C        20.1459157274        4.3604633592        5.2503340641
  C        20.1678300375        3.7814545774        6.5056595227
  C        20.9098476017        4.2957177414        7.5419548445
  C        21.7475247899        5.4340168495        7.2126611836
  C        21.8278205371        5.8995986939        5.9301463490
  H        22.4318759067        6.7539897138        5.5503684199
  H        22.4170688137        5.8389590145        7.9730310282
  H        20.9862044591        3.8044730348        8.4559422794
  H        19.4379131174        2.9104464481        6.7313786724
  H        19.6134338756        3.9024929853        4.4057771466
  C        23.4053373013        4.7166445872        3.3305829733
  C        24.5035720931        4.3287901568        2.6472299430
  C        24.5023077002        4.2216422092        1.2161722502
  C        23.3280185440        4.6214398063        0.5525546226
  H        23.2782871311        4.5666114787       -0.4975098294
  H        25.3389380438        3.9750193799        0.6429463634
  H        25.4059877497        4.1462334189        3.2459874350
  H        23.4627033404        4.7698344532        4.4254994439
  C        21.0439840640        5.4312562183       -0.9074101375
  C        20.2308823769        4.4212481883       -1.4503628829
  C        20.3466597465        4.0812176421       -2.8149691962
  C        21.2073672463        4.8324182011       -3.6317066834
  C        21.9357320267        5.9406694216       -3.1397191368
  C        21.9009364625        6.1814220169       -1.7300322570
  H        22.4275742694        7.0311865407       -1.3678050032
  H        22.6870182672        6.4618562097       -3.7364906096
  H        21.1745964413        4.6478614299       -4.6876780963
  H        19.7700607073        3.2404487564       -3.2805736925
  H        19.6953726134        3.7338661524       -0.7953901660
