140

  C        11.3895596821        6.7195536690        0.6439083031
  C        10.3799571810        7.4579198825        1.3292879174
  C         9.2634357383        8.0769628256        0.6608092902
  C         8.2038271957        8.6646592841        1.3771009513
  C         7.1536095241        9.3255759169        0.7610026695
  C        10.4716927919        7.7488440541        2.8716244294
  C        11.4098076716        8.6421092946        3.3749764865
  C        11.4263040277        9.0531586338        4.7109666107
  C        10.4082192495        8.5337020390        5.5699418496
  C         9.5234466322        7.5124663561        5.1106260182
  C         9.5833345923        7.1352811357        3.7909348407
  H         8.1102745481        8.6223390286        2.4880232158
  H         6.4467026980        9.8722040095        1.3627766603
  H        12.0127773304        9.2523257110        2.6581769966
  H        12.0535022891        9.8300096408        5.0358772221
  H        10.3869983630        8.8983617596        6.6268173253
  H         8.8168677038        7.0915227323        5.8694480057
  H         8.8620498288        6.3543126565        3.4263616044
  C        11.3628713075        6.8386712967       -0.8721206222
  C        12.4085505691        6.1861207333       -1.6084318828
  C        13.4495882458        5.5753615140       -0.9226668152
  C        13.5843959115        5.5765838863        0.4724767832
  C        12.4953186065        6.0626789224        1.2574121783
  C         9.1802934331        8.0643474395       -0.8135348798
  C        10.2912044805        7.5298861041       -1.5250574029
  C        10.3501757583        7.9512252605       -2.9871199194
  C        11.0602436520        9.0549479961       -3.3264764750
  C        11.0609010276        9.3978800890       -4.7097192115
  C        10.2754300964        8.7150424085       -5.6826471937
  C         9.4258511946        7.6822677183       -5.1873735337
  C         9.5129824198        7.2461823658       -3.9005191213
  H         9.0791980740        6.3520632828       -3.4483689096
  H         8.7188066292        7.1290275715       -5.8663938805
  H        10.2012861195        9.0780121142       -6.7623137574
  H        11.4927696511       10.2861687552       -5.0143354941
  H        11.6728153615        9.6255064081       -2.6844387530
  C         8.0563400405        8.8013646141       -1.4103321727
  C         7.0977787993        9.3714509136       -0.6389797320
  H         6.2505727179        9.8913264760       -1.0599601316
  H         7.8749183002        8.7978295612       -2.4685587912
  C        12.4664820977        5.8069535900        2.7209972652
  C        11.5635109640        4.8487959315        3.2588798674
  C        11.5707787073        4.3990438708        4.5808173792
  C        12.6084981077        4.8087494957        5.4449258185
  C        13.4970322527        5.7755864066        4.9237050664
  C        13.4244982881        6.2599820671        3.6161640045
  H        14.1387414739        6.9679089512        3.2064148222
  H        14.2247201956        6.1355225049        5.6588605757
  H        12.8082151318        4.3994826543        6.4621640482
  H        10.9365294481        3.5881116190        4.9260628729
  H        10.7557158940        4.4363669005        2.6380057042
  C        14.7816783990        5.0439325738        1.1691394105
  C        15.7371311154        4.4601094301        0.4217505443
  C        15.5913274063        4.3914767320       -0.9945974395
  C        14.4960604985        4.8367883054       -1.6578258936
  H        14.4770729906        4.6143259921       -2.7112982942
  H        16.2677666789        3.6808394034       -1.5348099551
  H        16.7304348436        4.1749580192        0.7919399068
  H        14.7374592887        5.1720690458        2.3130614183
  C        12.2388535547        5.8482551549       -3.0697524029
  C        11.5749250219        4.6646073717       -3.4567259619
  C        11.4176691644        4.3735700434       -4.8296081451
  C        12.1463050270        5.1455500860       -5.8098265598
  C        12.9162912511        6.3045308148       -5.3861136660
  C        12.9142955644        6.6513828552       -4.0084163708
  H        13.3769572206        7.5178374958       -3.6374158331
  H        13.6155073025        6.7351181067       -6.1342584855
  H        12.2676782082        4.7896943772       -6.8465649332
  H        10.8373872435        3.4901066749       -5.2776262750
  H        11.0283855101        4.0747284719       -2.6726442581
  C        18.5079169189        6.5832028473        0.5557871193
  C        17.5713088680        7.3904414883        1.2222785730
  C        16.4832053123        7.9856176860        0.5274535787
  C        15.4355695967        8.7111612987        1.1789773937
  C        14.2720516861        9.1727891185        0.5740569719
  C        17.6675013233        7.7314203396        2.7217435537
  C        18.3206378137        8.9679847592        3.0499369800
  C        18.2798833168        9.4331110982        4.3775355259
  C        17.6062079498        8.7012709388        5.3932584579
  C        16.9331261682        7.5528650565        4.9958691709
  C        16.9168407429        7.0736003365        3.6933319740
  H        15.4631900640        8.9110987044        2.2154866949
  H        13.5257528293        9.7339834396        1.1092043765
  H        18.7864741538        9.5798022890        2.2566683531
  H        18.8591664693       10.3117840200        4.5985641429
  H        17.6667202385        9.1042665960        6.4127756020
  H        16.5580614316        6.8993049307        5.7486220927
  H        16.3605499130        6.1908133042        3.3819999112
  C        18.5281480696        6.5833465933       -0.9364599835
  C        19.5883627183        5.9433483180       -1.5952441241
  C        20.6544167479        5.3635222646       -0.9066901194
  C        20.6152696320        5.3338303467        0.5638431131
  C        19.5066330616        5.8483665151        1.2510744771
  C        16.3926420486        7.8120718701       -0.8809664629
  C        17.4712383597        7.2862046958       -1.5925020050
  C        17.4822395224        7.6301200665       -3.0937174019
  C        18.2113926832        8.7312476317       -3.5222598271
  C        17.9438647718        9.3054096585       -4.8303730349
  C        16.9503263828        8.7616035376       -5.6753795449
  C        16.2965176321        7.6008952180       -5.2426757516
  C        16.5104925900        7.0863913323       -3.9786825934
  H        15.8467180887        6.3459124209       -3.5880443538
  H        15.5510576509        7.1542599109       -5.7717470036
  H        16.7433891268        9.1452520570       -6.7000079034
  H        18.5860979253       10.1235992792       -5.1591003494
  H        19.0214433444        9.2100323627       -2.9143578290
  C        15.1775188191        8.3287131575       -1.5360216130
  C        14.2186572437        9.0214424282       -0.8301358991
  H        13.3938700538        9.4831886595       -1.4472324043
  H        15.1368995687        8.2323766859       -2.5920240405
  C        19.4501112207        5.5725171971        2.7290015331
  C        18.5854289080        4.5799782839        3.1669658430
  C        18.5326464042        4.2380420521        4.5339010782
  C        19.3998822709        4.9104915682        5.4265002876
  C        20.1743405793        5.9800889059        5.0062128520
  C        20.2734596187        6.2800716574        3.6159675462
  H        20.8967206059        7.1113976124        3.3012800452
  H        20.6113046988        6.6112361376        5.7762257627
  H        19.5167496134        4.6585888257        6.5040172884
  H        17.8518821890        3.4355726042        4.8500073256
  H        17.9097626689        4.0026837896        2.5288430689
  C        21.7399096945        4.7316263291        1.2547842787
  C        22.8022320695        4.1408071694        0.5418948715
  C        22.7321596588        3.9977683286       -0.8319632253
  C        21.6644534817        4.5905988124       -1.5325293847
  H        21.7390633286        4.4614734193       -2.5961956588
  H        23.5767863771        3.4846872567       -1.3319922705
  H        23.6427428875        3.8388271220        1.1423912463
  H        21.7897933558        4.9041392704        2.3508959801
  C        19.6210491973        5.6531592736       -3.0067985714
  C        18.8578053728        4.5410155083       -3.4594857429
  C        18.8458242379        4.1812820270       -4.8440451793
  C        19.8136397699        4.7905896816       -5.7287781132
  C        20.5704199871        5.8739229881       -5.2891292204
  C        20.4237520783        6.2926177449       -3.9758458184
  H        20.8527599880        7.2554387339       -3.7159314441
  H        21.3030129249        6.2205401951       -5.9810730432
  H        19.7294984296        4.6038015252       -6.7946937804
  H        18.0394364645        3.5486181965       -5.2597852562
  H        18.1492197019        4.1302729317       -2.7212335772
