140

  C        12.0930147970        5.4042764310        0.3248798430
  C        11.1759844509        6.2458954164        1.0874943673
  C        10.0945011422        6.8640846248        0.4118872697
  C         9.1109211013        7.6347795034        1.0225355337
  C         8.1553062059        8.3122574117        0.3420829212
  C        11.3279029620        6.5644750960        2.5110449717
  C        12.1297990475        7.6289625143        2.9223278426
  C        12.1538910273        8.0964020530        4.2273723984
  C        11.1935982592        7.6419406568        5.1283370452
  C        10.3588365162        6.4559093996        4.7225973928
  C        10.4458272550        5.9303445944        3.4031928033
  H         9.0104345925        7.5835234265        2.1151174404
  H         7.4107262072        8.8752605115        0.9058000950
  H        12.8417206048        7.9904217073        2.0839413489
  H        12.8290438417        8.9375423967        4.5029455619
  H        11.2309079221        8.0771656504        6.1490830729
  H         9.6454082744        6.0536477043        5.3926857055
  H         9.9376996165        5.0286298343        3.1259580240
  C        12.1841032528        5.6020362998       -1.1616968119
  C        13.2154577957        5.0364508429       -1.8653994784
  C        14.3774390844        4.5640433689       -1.1557348355
  C        14.3803085838        4.4565603792        0.2561018691
  C        13.2025908396        4.7972015293        0.9716554271
  C        10.1742477426        6.9341400557       -1.0616935213
  C        11.1644810749        6.4006237261       -1.8510102934
  C        11.2912774842        6.7932758069       -3.2549319131
  C        12.0168819478        7.8912392120       -3.6431359521
  C        12.2609565616        8.2442480339       -4.9414241270
  C        11.5288764457        7.4452328678       -5.8954823171
  C        10.7791889892        6.3207778090       -5.5231852215
  C        10.6055075701        6.0191355807       -4.1906976055
  H        10.0638152286        5.0920138654       -3.8504903741
  H        10.2626305927        5.7987842885       -6.3053636980
  H        11.6311272941        7.6494864643       -6.9182994422
  H        12.8287610354        9.1183194452       -5.1740201701
  H        12.4058509528        8.5672319036       -2.7750883142
  C         9.0806705020        7.6443803016       -1.8010304872
  C         8.0877761973        8.3055736692       -1.0995864048
  H         7.1663776359        8.6688898437       -1.5534462219
  H         9.0243389179        7.5649786500       -2.9011490026
  C        13.2858232496        4.5588570480        2.4868493749
  C        12.5924887313        3.4409716095        3.0523027911
  C        12.7759295578        3.1016345453        4.4223000157
  C        13.6185338579        3.9409156456        5.2231737187
  C        14.3978014638        4.9186332527        4.5753293555
  C        14.1746566856        5.2723292475        3.2709649944
  H        14.7922674814        6.0835086381        2.8804641860
  H        15.1598859721        5.5267887625        5.0945644916
  H        13.7169524873        3.6111285863        6.2326440656
  H        12.4600238705        2.2481412529        5.0176894232
  H        11.9655410780        2.8503973537        2.4218361809
  C        15.4367130636        3.7595988115        0.9506273237
  C        16.6168304304        3.3586217951        0.2824478567
  C        16.6315300484        3.6455748056       -1.1266570999
  C        15.5776953735        4.1637377458       -1.8080730649
  H        15.6929414944        4.2647332344       -2.8928723873
  H        17.4936509945        3.4178910043       -1.7729526212
  H        17.4012618660        2.7975783815        0.6818982786
  H        15.4197273542        3.6653628459        2.0014106559
  C        13.1356918442        4.7175447851       -3.3080706421
  C        12.3409886755        3.7400056706       -3.8689540609
  C        12.4773071537        3.3715120632       -5.2786099121
  C        13.3715535034        4.0382009247       -6.0732102036
  C        14.1511014724        5.0412453887       -5.4636911345
  C        13.9492902956        5.4587280699       -4.1843027138
  H        14.5918564831        6.2677614137       -3.8337797860
  H        14.7920707815        5.6130510356       -6.0318045172
  H        13.5744796869        3.6468749570       -7.0316217369
  H        11.7544898504        2.5741898000       -5.6253801911
  H        11.7254289759        3.1501061397       -3.2968627889
  C        19.6531288526        6.0379153149        0.2435937028
  C        18.6047226530        6.6793175599        1.0016226892
  C        17.4917105701        7.1750307984        0.2611049252
  C        16.1976081114        7.4236904844        0.7839687909
  C        15.1410276670        7.9284404143        0.0710852229
  C        18.6921573864        7.0321868868        2.4646410857
  C        19.5493082358        8.0884734028        2.7578307579
  C        19.6183835551        8.6496236917        4.0385533716
  C        18.6797335052        8.2680790704        5.0116645480
  C        17.8248843362        7.1732851721        4.7379293977
  C        17.8114750065        6.6014367098        3.5069252178
  H        16.0365003267        7.3072727573        1.8631672464
  H        14.1696715557        8.1508625973        0.5334857365
  H        20.2136039413        8.5766183513        2.0530925032
  H        20.2702010185        9.4856480352        4.2606799716
  H        18.6994035770        8.6728693375        6.0052104866
  H        17.1432739338        6.9697241554        5.4924186702
  H        17.1639563578        5.7702729121        3.2284077092
  C        19.7213336065        6.0120481335       -1.2580102125
  C        20.6529924948        5.2182328181       -1.9492798618
  C        21.6994603225        4.5428432326       -1.2831025094
  C        21.6850966963        4.5941721882        0.1647550898
  C        20.6593324277        5.2840665201        0.8859284775
  C        17.5364683511        7.1888521588       -1.2020730530
  C        18.6378269685        6.6739860367       -1.9683021314
  C        18.6927720041        6.9879402168       -3.4141607918
  C        19.4710290119        8.1611128100       -3.7720785733
  C        19.5828311643        8.5353267233       -5.1028379661
  C        18.7026009616        8.0217559021       -6.0844072278
  C        17.7560423864        7.0894120377       -5.6630017540
  C        17.7535175170        6.5386603782       -4.3855146661
  H        17.2181216420        5.6364182007       -4.1164106039
  H        16.9054267267        6.8072293604       -6.4137732106
  H        18.7191696481        8.3962860647       -7.1109445854
  H        20.1879462927        9.3951135640       -5.3236933321
  H        20.0725058528        8.6455384312       -3.0428711009
  C        16.5128288451        7.8794019353       -1.9541249642
  C        15.3340760946        8.2395152183       -1.3090505265
  H        14.5795762904        8.7826940520       -1.9085692522
  H        16.6499956331        8.0419474535       -3.0101380960
  C        20.6786814043        4.9615906965        2.3584774936
  C        19.8630923953        3.8962139789        2.6300497661
  C        19.7947743863        3.4011919812        3.9028739999
  C        20.5185372827        3.9781982938        4.9409730583
  C        21.3609037600        5.0517328800        4.6047658215
  C        21.4913564331        5.5395765987        3.3512005832
  H        22.2011816222        6.2833568648        3.0709156555
  H        22.0130492662        5.3887533301        5.4119808608
  H        20.2919814604        3.7238148361        5.9806794114
  H        19.1421720784        2.5353780583        4.1044122464
  H        19.1004388859        3.5598318546        1.9088072999
  C        22.6700450099        3.8402504917        0.8872862747
  C        23.6936287638        3.2417919251        0.1766233116
  C        23.7820310139        3.3047336448       -1.2563372150
  C        22.7741070087        3.9108803473       -1.9419583146
  H        22.6872753044        3.9603058719       -3.0315186246
  H        24.6608227801        2.9073923878       -1.6414368530
  H        24.4464930436        2.7194860486        0.7653416382
  H        22.6015733587        3.7546540237        1.9715626967
  C        20.5514512012        4.9039789862       -3.4141036095
  C        19.6513367485        3.8779732371       -3.7702585269
  C        19.5863378075        3.4057543449       -5.1101399070
  C        20.4815445967        3.9387728599       -6.0812295437
  C        21.3285338745        5.0262232053       -5.7466060885
  C        21.3705690067        5.4498728043       -4.4088913455
  H        22.0918772360        6.2660101884       -4.1710155300
  H        21.8929394052        5.4869251894       -6.6146847594
  H        20.3450329077        3.4907409900       -7.1001067003
  H        18.8811264525        2.6576262376       -5.4327340863
  H        19.0042025067        3.4359342403       -3.0516365468
