140

  C         3.3258924622        0.0925374997       14.6443920702
  C         4.4113934125        0.6517192848       15.4003433129
  C         5.4475687316        1.2922715452       14.6936552207
  C         6.6217842915        1.8747727071       15.3628522963
  C         7.6908111110        2.4685892047       14.7807244953
  C         4.5224777252        0.8412430364       16.8771077240
  C         3.5570883689        1.6799993840       17.4812798860
  C         3.5796493820        2.0556184348       18.8404857545
  C         4.4197910598        1.3179800012       19.6811609703
  C         5.4177255113        0.4802733524       19.0967909319
  C         5.5171516391        0.2606217540       17.7030323967
  H         6.5358793733        1.6947295835       16.4760199167
  H         8.5756757188        2.8477949419       15.2734974549
  H         2.8463525746        2.1339662331       16.8324434624
  H         3.0511393548        2.9658547571       19.1886524123
  H         4.3762811069        1.4979964504       20.7493287898
  H         6.0503586878        0.0040508680       19.8158780999
  H         6.3144390821       -0.3162889792       17.2009491993
  C         3.2780506235        0.1085178073       13.1700699772
  C         2.4294165534       -0.7386677178       12.4378985932
  C         1.3907847257       -1.3769889378       13.1800455372
  C         1.2550720400       -1.2913065375       14.5775699748
  C         2.3504416217       -0.7488429905       15.3452448164
  C         5.3138488742        1.4947907450       13.2506069335
  C         4.2347945415        0.9448644498       12.5148563450
  C         4.1281427057        1.3657791696       11.0796742936
  C         3.1382137087        2.3023080853       10.6131802201
  C         3.1882966252        2.9142377582        9.3454933147
  C         4.1688061369        2.4654666375        8.4399029917
  C         5.0223597132        1.4099225444        8.8180056828
  C         5.0347049348        0.8999796346       10.0968051732
  H         5.7188625365        0.0562452916       10.2614976808
  H         5.7171742483        0.9435829154        8.1221574222
  H         4.2156512211        2.7231229494        7.3467904543
  H         2.5369125537        3.7348554135        9.0634905762
  H         2.3629289414        2.7176084255       11.2296626046
  C         6.4615888965        2.0611390552       12.6174478708
  C         7.6676135155        2.4526028929       13.2760822057
  H         8.5321438665        2.8608653660       12.7432820738
  H         6.4788676116        2.1800846520       11.5387042314
  C         2.3356551001       -1.1141750171       16.7999067837
  C         3.3015324893       -2.0683591528       17.2472654559
  C         3.2950964838       -2.5477393044       18.5559769106
  C         2.3419251107       -2.0084106276       19.4640127614
  C         1.4948884557       -0.9591693392       18.9922024458
  C         1.4922995480       -0.5108238740       17.6899185780
  H         0.7307891797        0.1359307240       17.2774612355
  H         0.8134769644       -0.5625186952       19.6634846302
  H         2.2469882607       -2.2113111786       20.5563996206
  H         4.1310942919       -3.2472843323       18.9168035157
  H         4.0964901344       -2.3604098091       16.5490111973
  C         0.0628959918       -1.7406544737       15.1355803795
  C        -0.9950951772       -2.3544404273       14.4557337138
  C        -0.7846705251       -2.5399308723       13.0835405957
  C         0.4411577108       -2.1836295011       12.4952165499
  H         0.6878636726       -2.3786664496       11.4230993197
  H        -1.5152230101       -3.0002914952       12.4640220411
  H        -1.8719197670       -2.6893295046       14.9896801879
  H         0.0631565286       -1.7783829359       16.1948764037
  C         2.5337838665       -0.9790218150       10.9292389167
  C         3.3944186673       -1.9722759947       10.4767354011
  C         3.3430058997       -2.3112958127        9.0863553278
  C         2.5787073131       -1.5857490481        8.1754705504
  C         1.7568449076       -0.5602857650        8.6736097879
  C         1.7920677888       -0.2222696449       10.0499892226
  H         0.9770205455        0.4774552379       10.4029139719
  H         1.1478212937        0.0035327997        7.9859672904
  H         2.7587159359       -1.9224736157        7.1496563104
  H         3.9243691057       -3.0831948981        8.6987689060
  H         3.9305810053       -2.5017490520       11.2603703449
  C        10.5343825321        0.2399184864       14.6985656042
  C        11.6099748759        0.9051493774       15.3892244649
  C        12.6906643592        1.4915062941       14.7374351376
  C        13.7897787304        2.0590097411       15.4495694491
  C        14.9355735598        2.5116022845       14.7983830769
  C        11.5703895382        1.1189670561       16.8774920416
  C        10.8670657799        2.1995129801       17.3642510976
  C        10.7943854055        2.5428260102       18.7385767201
  C        11.5775353155        1.8718151701       19.6107558648
  C        12.3342092344        0.7734507318       19.1431488263
  C        12.3180415931        0.3617560043       17.8552850107
  H        13.7268721207        2.1318412935       16.5239419177
  H        15.7436157083        2.7778330785       15.4505439370
  H        10.1554054297        2.7830280751       16.7175478025
  H        10.0763698353        3.2932989775       19.0203531560
  H        11.6410104565        2.0738615297       20.6557811357
  H        13.0195665389        0.2612963838       19.8156062824
  H        12.9873417172       -0.4203763896       17.5452327115
  C        10.5015075739        0.3717599850       13.2662519652
  C         9.3881528673       -0.1889169157       12.5816163842
  C         8.3539893253       -0.8341093805       13.2907033617
  C         8.4319925405       -0.9884829046       14.7083609787
  C         9.5869420315       -0.5697944363       15.3623501846
  C        12.7063065397        1.5538108720       13.2921761079
  C        11.6189514999        1.0328549054       12.5370888689
  C        11.7245983796        1.4210590897       11.1356354544
  C        11.0433076870        2.5546062001       10.6990995055
  C        11.0447374429        2.9421045616        9.3286680739
  C        11.8055682376        2.2502229564        8.3672608665
  C        12.4695211194        1.1171499883        8.7848213869
  C        12.4360427059        0.7459810903       10.1266474508
  H        12.8777846839       -0.2109357856       10.3229130589
  H        12.9770081651        0.4754189382        8.0771503533
  H        11.7136014877        2.5694702487        7.3615158800
  H        10.3880904933        3.7611559391        8.9062308952
  H        10.5246824371        3.1775110376       11.4034443302
  C        13.9528752770        1.9945841885       12.6995262223
  C        15.0272711860        2.4220360790       13.3983266770
  H        15.8537103654        2.9613268269       12.9327024074
  H        13.9550667196        2.2140149456       11.6657487523
  C         9.7186902334       -1.0142005942       16.7961894435
  C        10.6308007089       -1.9974689865       17.0873629897
  C        10.7402895892       -2.5812371659       18.3452290564
  C        10.0448318789       -1.9670156376       19.4061389023
  C         9.2415723387       -0.8419508454       19.1639083403
  C         8.9826274303       -0.4545712131       17.8552880226
  H         8.3727207890        0.4236645889       17.7276802100
  H         8.6865041381       -0.3422540674       19.9361252607
  H        10.3355524259       -2.3665478013       20.3944678057
  H        11.3453362340       -3.4873631156       18.5894973491
  H        11.2150216542       -2.4202641399       16.2740422096
  C         7.3874542132       -1.7310362948       15.3544912270
  C         6.3293128615       -2.1921695323       14.6344401474
  C         6.2672129821       -2.0290607114       13.2060434948
  C         7.2484905673       -1.3361553623       12.5747210954
  H         7.1797682994       -1.2437405571       11.4602974989
  H         5.5210973746       -2.5877403714       12.5982757510
  H         5.5286303393       -2.6958271467       15.1447722430
  H         7.5233730297       -1.9164655384       16.4016953574
  C         9.3650216859       -0.3198934290       11.0530994878
  C         9.8910651024       -1.5934792703       10.5357735720
  C         9.5078011790       -1.9494825607        9.2466046154
  C         8.9489177494       -1.0170395678        8.3629233497
  C         8.6629370830        0.2534200799        8.7802641675
  C         8.7724771109        0.5950389039       10.1715251570
  H         8.4248796822        1.5106479055       10.5656485647
  H         8.3499493963        0.9876003925        8.0314405986
  H         8.6848904357       -1.3889731480        7.3656442190
  H         9.6671215350       -2.9661917457        8.8540497219
  H        10.3925780425       -2.3250705527       11.1831332289
