140

  C        10.0286453073        7.3311659881        1.1106245846
  C         9.0869238618        8.0416502434        1.8003873226
  C         7.9770114724        8.7504138253        1.1415309037
  C         6.8784765944        9.4155116067        1.7346206391
  C         5.7446054012        9.8471609975        1.0483487218
  C         9.1018056908        8.3672957854        3.2305241049
  C         9.9207464420        9.4513287033        3.5857621265
  C         9.9035189948       10.1263005588        4.8093499738
  C         8.9574777835        9.7724668344        5.7726243558
  C         8.2267759977        8.5785345790        5.4917524061
  C         8.3434600978        7.8924083010        4.2266183495
  H         6.7969086120        9.6332720809        2.8391075923
  H         4.9839383174       10.4196815315        1.5946058845
  H        10.6536073188        9.7176694970        2.8607406081
  H        10.5480754898       10.9847801164        4.9851824673
  H         8.9999465321       10.1239082094        6.7778224908
  H         7.4809009197        8.1225691987        6.1650213414
  H         7.6788302984        7.0353927578        4.1444133293
  C        10.0760247659        7.4558968138       -0.3480685049
  C        11.1303056682        6.7604669035       -0.9404944203
  C        12.2014938301        6.1541813236       -0.2579364544
  C        12.2835550931        6.1379383251        1.1797584674
  C        11.1054977348        6.5615881079        1.8009734135
  C         7.9519527219        8.6850717748       -0.3396175878
  C         9.0789257627        8.1586470091       -1.0709571624
  C         8.9969044870        8.4235197797       -2.5617497847
  C         9.6679173886        9.5617833924       -3.1153310395
  C         9.5862353741        9.8461515435       -4.4414499133
  C         8.8363571255        8.9630295943       -5.3123525326
  C         8.1681717755        7.8304092963       -4.8092141187
  C         8.2604887619        7.5853688026       -3.4037158209
  H         7.6062205463        6.8807855549       -2.8583461215
  H         7.5810803367        7.2621394179       -5.5204426712
  H         8.7009064959        9.2009208003       -6.3344212433
  H        10.2002580727       10.6583008568       -4.8215175356
  H        10.2407718533       10.1674878223       -2.4684564649
  C         6.7289924142        9.1005399184       -1.0508353294
  C         5.6962913476        9.7445626867       -0.3826827047
  H         4.9047928286        9.9963245179       -1.0661521328
  H         6.6337668024        9.0609851094       -2.1160263768
  C        11.0872785626        6.3827383206        3.3164959495
  C        10.2508830174        5.2726753505        3.7098385529
  C        10.2214528783        4.9113234108        5.0672686107
  C        10.9287002060        5.6983181162        6.0417133524
  C        11.7735305331        6.6733415856        5.5287839826
  C        11.8311814556        7.0233827216        4.2396207774
  H        12.4450838060        7.9065115013        3.9831857556
  H        12.3228331255        7.1771882311        6.2895138292
  H        11.0451283523        5.5127979492        7.0857983687
  H         9.6084737459        4.0512573140        5.3848730494
  H         9.7121292033        4.6430502615        2.9937382763
  C        13.4498630863        5.6302758397        1.8053264409
  C        14.5427523897        5.1584941976        1.0819188611
  C        14.5008135374        5.0553749255       -0.3121452736
  C        13.3458144027        5.5308621062       -0.9303501549
  H        13.2831491339        5.4447583275       -1.9847005194
  H        15.1861466354        4.4489571103       -0.9090325241
  H        15.4577771141        4.7620132137        1.5460584252
  H        13.4291369518        5.6012556916        2.8739935618
  C        11.0931214481        6.2862117816       -2.3293572581
  C        10.2386214761        5.2141994708       -2.6846722971
  C        10.1376934551        4.7166253682       -3.9530103748
  C        10.8093343291        5.3235736439       -5.0776419068
  C        11.6467969611        6.3678189513       -4.7630517110
  C        11.7403664873        6.8928596211       -3.4419702077
  H        12.3009826869        7.7740634466       -3.3150258866
  H        12.2252960513        6.8049322695       -5.5416701266
  H        10.6224533091        4.9682139587       -6.0579269978
  H         9.6157331627        3.8233061803       -4.1505978156
  H         9.7473111744        4.6548009291       -1.8810625230
  C        17.0444418501        7.4941900156        1.4574536210
  C        16.0512217640        8.2259614927        2.1245837780
  C        14.9105557912        8.6632382028        1.3741205759
  C        13.7146929923        9.2470593149        1.9794658549
  C        12.7618640207        9.7684475032        1.1965272213
  C        16.1625202453        8.6939000702        3.5683189240
  C        17.1375590335        9.6620283876        3.8314108918
  C        17.3180640417       10.0860531358        5.1462348342
  C        16.5573152801        9.5370440752        6.1928702490
  C        15.5461823519        8.6332089955        5.9247220890
  C        15.3814082608        8.2792543706        4.6186096388
  H        13.7872362187        9.2924252938        3.0569481618
  H        11.9302612798       10.3870700262        1.6108906101
  H        17.7479606637        9.9834921250        3.0448538728
  H        18.0558398893       10.8542181559        5.3726184417
  H        16.7217929440        9.7873929231        7.2195670524
  H        14.9152829635        8.2297167088        6.7095407289
  H        14.5712401902        7.6409408189        4.3471408455
  C        17.0358205254        7.3708911582        0.0015331171
  C        18.1410654987        6.6601312624       -0.6305693172
  C        19.2782126964        6.2401826272        0.1277715441
  C        19.0830051994        6.2514315762        1.5590958220
  C        17.9622765168        6.7191489459        2.2133782351
  C        14.9071580961        8.4641673259       -0.0606671735
  C        15.9687677797        7.8861539156       -0.6910055432
  C        16.0357500257        8.2748696581       -2.1107842439
  C        16.6918474840        9.4560989728       -2.4367210067
  C        16.7515282612        9.9525287743       -3.7159063315
  C        15.9665066006        9.3056762370       -4.6703061268
  C        15.2371409931        8.0908684349       -4.4315122368
  C        15.3991930441        7.5527053605       -3.1489734890
  H        15.0710994496        6.5261617091       -2.9344980520
  H        14.6272784025        7.6732589139       -5.2236179245
  H        16.0128484488        9.6788137164       -5.7120816265
  H        17.2752219281       10.8617531479       -3.8904902253
  H        17.2359514903       10.0096676406       -1.6570032683
  C        13.7910895369        8.9270858266       -0.8459566685
  C        12.8013540641        9.5861591696       -0.2224569517
  H        11.9974328158       10.0333866656       -0.7837059203
  H        13.8586620992        8.9301147537       -1.9020107993
  C        17.8811374812        6.4582165686        3.7288607927
  C        17.1424740429        5.3478367634        4.1279465450
  C        17.2277360868        4.8181852627        5.3953182344
  C        18.1350704994        5.3785813457        6.2981432573
  C        18.9136561212        6.4941433384        5.9419849273
  C        18.8512414273        6.9767954161        4.6445068976
  H        19.4502267375        7.8608257227        4.3605124657
  H        19.6052439041        6.9889190229        6.6321457306
  H        18.1144570767        4.9206066669        7.3110459432
  H        16.6445086639        3.8936950274        5.5484349155
  H        16.5062529192        4.8908826577        3.3812806014
  C        20.0913764529        5.5483466657        2.3384739420
  C        21.2678658538        5.0690425653        1.7839834111
  C        21.4370457000        5.0746217616        0.3197618134
  C        20.4450345240        5.6272587434       -0.4423623951
  H        20.5665503043        5.6010612871       -1.5274613375
  H        22.3165146070        4.5264077851       -0.0864186159
  H        22.0487417091        4.5664213751        2.3649747834
  H        19.9284870542        5.5648776721        3.4098647780
  C        18.2451637779        6.4245769501       -2.1312907366
  C        17.6191482063        5.2494230401       -2.6226108459
  C        17.7565850496        4.9214960926       -3.9738317252
  C        18.6835006931        5.6342903871       -4.7833466902
  C        19.2360664138        6.8106242499       -4.2834920743
  C        18.9631890943        7.2888793606       -2.9980308556
  H        19.4199819640        8.1821501922       -2.6163137071
  H        19.8895456876        7.4605853131       -4.9408763589
  H        18.9195488990        5.3139832241       -5.8407291875
  H        17.1562951222        4.1704769951       -4.4519917780
  H        17.0499298330        4.7717309796       -1.8344791411
