140

  C        11.5813302290        6.9354161338        2.1600824068
  C        10.4997622235        7.6268706465        2.8687817502
  C         9.5113379640        8.3167703526        2.1389962214
  C         8.4002214743        9.0152822869        2.7703837982
  C         7.4065832029        9.6192830962        2.0639729384
  C        10.6330153799        8.0866040808        4.3320572810
  C        11.7321648051        8.9212110709        4.6288092437
  C        11.9430636601        9.4255769426        5.9045287533
  C        11.0380125315        9.2068839097        6.9261795336
  C         9.8695730285        8.4438552245        6.6480103917
  C         9.7019949926        7.8688039335        5.3718824704
  H         8.4805523407        9.0855255561        3.8229406913
  H         6.6262731966       10.1244040932        2.5625257109
  H        12.4517367263        9.3192801494        3.9101700518
  H        12.8298241268       10.0679241268        6.0833537576
  H        11.2053685136        9.6388104635        7.8907678493
  H         9.1782768349        8.1281028728        7.4605722966
  H         8.8316256601        7.2754092687        5.1040196280
  C        11.7268144879        7.0403282383        0.6595161528
  C        12.8256543840        6.3987864159       -0.1567233057
  C        13.8811241136        5.8290774253        0.6758523355
  C        13.7199117653        5.7243273981        2.1498101718
  C        12.6410670742        6.2563705523        2.8694564199
  C         9.5323898999        8.2986264843        0.6912984731
  C        10.7076279888        7.7973314150       -0.0041046247
  C        10.7954096077        8.1143423180       -1.5050007182
  C        11.4671639724        9.3391703734       -1.8476294654
  C        11.3672613263        9.8470763228       -3.1689403602
  C        10.6937299571        9.1339468671       -4.1218308315
  C         9.9626452062        7.9773437388       -3.8407615757
  C        10.0116004030        7.4819004568       -2.5076462956
  H         9.5332343001        6.5288401144       -2.1952217393
  H         9.3738467736        7.4890426879       -4.6016354056
  H        10.5960011294        9.5886018469       -5.0823372001
  H        11.9859536094       10.6500137624       -3.4966721348
  H        11.9822887297        9.8373803909       -1.0868250154
  C         8.4343930933        8.9423717632       -0.0080563811
  C         7.3887235084        9.5213165086        0.6506535721
  H         6.5358038143        9.9086184814        0.1764329373
  H         8.4792637109        8.9755969948       -1.0786388139
  C        12.5309641504        5.9687093444        4.3368037862
  C        11.4897622841        5.1034069175        4.8223617166
  C        11.6236791408        4.7008176642        6.1806320624
  C        12.5620688192        5.1885276150        7.0983661398
  C        13.4818670224        6.1908309077        6.6541212617
  C        13.4214791151        6.5431514143        5.2881648821
  H        14.0122325794        7.3288436226        4.8056289654
  H        14.2506391420        6.5984112395        7.2173401592
  H        12.5980674186        4.7710268747        8.1460226139
  H        10.8813745249        3.9881761264        6.5630666895
  H        10.7730820000        4.6460990700        4.1718127146
  C        14.8564626215        5.0929349812        2.8880279558
  C        15.8547605482        4.4772089583        2.2241150905
  C        15.8745580201        4.3647895253        0.8178303599
  C        14.9875137213        5.1356523863        0.1069389159
  H        14.9316249084        4.9328295766       -0.9539046396
  H        16.5602489171        3.8077284340        0.2485004556
  H        16.5248931449        3.9132568400        2.8377940250
  H        15.0053616070        5.2430390606        3.9597136067
  C        12.7381616827        5.9453486685       -1.5736953324
  C        11.9574220387        4.8600832968       -2.1223499658
  C        12.0897152961        4.4291323521       -3.4101599822
  C        13.0540570757        4.9346712731       -4.2981356643
  C        13.7322244339        6.0890001931       -3.8511364422
  C        13.6417910929        6.5002604285       -2.5362668500
  H        14.3790272037        7.2284276920       -2.1206003260
  H        14.3651502327        6.6905126868       -4.5592305103
  H        13.2455216503        4.4748859923       -5.2700445137
  H        11.5372985472        3.5386062581       -3.7292591596
  H        11.3161595448        4.2477852104       -1.4747643081
  C        19.0593200609        6.9232462258        2.3248391146
  C        18.0472804177        7.5738184659        3.1384886217
  C        16.8998496428        8.1826190682        2.4795984169
  C        15.8435735780        8.8162387033        3.2133933943
  C        14.7946748583        9.4407679199        2.6244873521
  C        18.2597973322        7.9822582711        4.5704155784
  C        19.1625335344        8.9253109928        4.9647887824
  C        19.1673962347        9.4300527221        6.2607472443
  C        18.1498863046        9.0065046439        7.1637415128
  C        17.2551396363        7.9686569888        6.7856160795
  C        17.2675879328        7.5475745749        5.4458360138
  H        15.9709835028        8.9816052727        4.2842793597
  H        14.0761386840       10.0431979604        3.2654989180
  H        19.9306726542        9.1464220067        4.2492967102
  H        19.8970101403       10.1409763420        6.6405358410
  H        18.2169119971        9.3571018537        8.2166158544
  H        16.5808351459        7.5677289410        7.5017427254
  H        16.5429641890        6.7793120339        5.0994396829
  C        19.0537158918        6.9624587044        0.7997786037
  C        20.1452441127        6.3735871082        0.1056690339
  C        21.2278123066        5.8526402225        0.8614204435
  C        21.2192364500        5.6382846848        2.2768463397
  C        20.0330179048        6.0740971463        2.9535189652
  C        16.8283220263        8.2020061252        0.9951324275
  C        17.9312065229        7.6497294923        0.2097081639
  C        17.9140099771        7.9884862937       -1.2456620968
  C        18.7912710802        9.0612959427       -1.6040045473
  C        18.8050636881        9.6335835694       -2.8985847036
  C        17.9179388022        9.2003345753       -3.9073728234
  C        17.0757777294        8.1187757478       -3.5533065435
  C        17.0577030634        7.5851494783       -2.2514506644
  H        16.3526724073        6.7245224120       -2.1412723161
  H        16.3938211546        7.6948599656       -4.2805465664
  H        17.8801726677        9.5613961384       -4.9354928172
  H        19.5836109878       10.3606482925       -3.0930216166
  H        19.4083582025        9.5314606585       -0.8352131713
  C        15.7448143696        8.9572015381        0.4455830357
  C        14.7317849707        9.5313452397        1.2408842492
  H        13.8835406639       10.0000594421        0.7544419856
  H        15.7256615500        9.1030399088       -0.6353498278
  C        19.9348280437        5.6373850397        4.3305972761
  C        18.9688163311        4.6821208577        4.7402232859
  C        18.7996206802        4.3823344392        6.0797382843
  C        19.6901929166        4.9524513754        7.0237659585
  C        20.7153825925        5.8463022037        6.6655636270
  C        20.8382993395        6.0755699813        5.2776220776
  H        21.6490321255        6.6729434844        4.8607320565
  H        21.4482086207        6.1957478899        7.4244759011
  H        19.5230358924        4.7455325810        8.0810118114
  H        18.0283706368        3.6551764499        6.3522648865
  H        18.2853497095        4.2487999654        3.9720115610
  C        22.2269060310        4.8265506337        2.8088729487
  C        23.3428000866        4.4101082895        2.1356978525
  C        23.4053937096        4.6693114208        0.7785119035
  C        22.3974221493        5.3783135826        0.1232671432
  H        22.4664952012        5.5415609625       -0.9093277195
  H        24.3239588228        4.2937889154        0.3233377673
  H        24.0466872461        3.8088252059        2.6545218343
  H        22.0806711059        4.5127831297        3.8468976932
  C        20.1026404624        6.1385623278       -1.3850202466
  C        19.2832807058        5.1421103634       -1.8262353878
  C        19.3811630230        4.6538124557       -3.1223701216
  C        20.2477237868        5.2035595101       -4.1090491297
  C        21.0987238102        6.2153604248       -3.6488407380
  C        20.9843984810        6.7091645946       -2.3316422999
  H        21.6518599150        7.4509744373       -1.9737854883
  H        21.7650631912        6.7331678560       -4.3213380125
  H        20.3778055310        4.7248784975       -5.0538885151
  H        18.8274521053        3.8066969774       -3.4435528164
  H        18.3884782671        4.7535720870       -1.3838104321
