140

  C        11.0947659122        6.2771677998        0.5323524376
  C        10.1039941264        7.0219861060        1.2253609534
  C         9.0617093105        7.6315308162        0.6080459828
  C         8.1937970951        8.5466399566        1.2504993279
  C         7.3358666782        9.3997608141        0.6223142086
  C        10.2400374202        7.4119739881        2.6838178840
  C        11.1791041796        8.4701052435        3.0358076190
  C        11.1641354404        9.0227474283        4.2816885468
  C        10.1968324777        8.5874401631        5.2504437310
  C         9.2741668477        7.5871238732        4.8939821353
  C         9.3877033676        6.9636480402        3.6664660133
  H         8.2400863805        8.6233998751        2.3454488123
  H         6.6998911065       10.0429140968        1.2143414648
  H        11.9718162479        8.6601695107        2.1943851439
  H        11.8946034953        9.7724681056        4.6875255112
  H        10.3481620188        8.9795062364        6.2595553085
  H         8.6537953317        7.1997503846        5.6376214362
  H         8.6648727884        6.2037902773        3.5133028542
  C        11.0968222301        6.3755613047       -0.9333508935
  C        12.0334459662        5.5340633968       -1.6780005814
  C        13.1731467771        5.0653739201       -1.0633987899
  C        13.3140805254        5.1680150920        0.3800886318
  C        12.1983388388        5.6211966316        1.1615251760
  C         9.0703716844        7.8030330146       -0.8677086003
  C        10.0782792054        7.2238464113       -1.5832079788
  C        10.2687601275        7.6064055913       -3.0240179717
  C        11.0398974414        8.7862583636       -3.1900839099
  C        11.2745629793        9.2875033824       -4.4336256033
  C        10.6292410557        8.7633476373       -5.6128472352
  C         9.7695969993        7.6473909753       -5.4352444291
  C         9.6903068188        7.0356455727       -4.1575856286
  H         9.0258510472        6.0965719512       -4.0385744464
  H         9.3647104596        7.1962718869       -6.3778658243
  H        10.9184307771        9.0581692433       -6.6094791368
  H        12.1133099396        9.9684988014       -4.4980220566
  H        11.3609201841        9.2542392357       -2.2758956409
  C         7.9562251236        8.5067210899       -1.4256456561
  C         7.0575580714        9.3177920116       -0.7093067111
  H         6.2193224086        9.7949204123       -1.2576874622
  H         7.8532465890        8.5065779556       -2.5065883227
  C        12.1801969575        5.1775637027        2.5822178794
  C        11.1595140589        4.3390989738        2.9007442719
  C        11.1302684236        3.6673006274        4.1582488899
  C        12.1260926038        3.9424694135        5.0591025609
  C        13.1872737421        4.8324038222        4.7470493517
  C        13.1753247848        5.4940229366        3.5046836357
  H        13.8661046759        6.2976591136        3.3112791575
  H        13.9592294724        5.1029526144        5.4775827110
  H        12.1737960620        3.5067058945        6.0749626018
  H        10.4208000063        2.8799716040        4.3656275858
  H        10.4630354664        4.0203298310        2.1056472585
  C        14.4910281531        4.5483030465        0.9567474809
  C        15.5049864174        4.0196997566        0.1611759745
  C        15.3628285319        3.9829684462       -1.2119477202
  C        14.2187877678        4.3782856495       -1.7812334177
  H        14.0117265741        4.2468365267       -2.7989397293
  H        16.0451543072        3.4834976895       -1.8844066373
  H        16.5125746705        3.8527954761        0.6397364462
  H        14.5868164924        4.4669027458        2.0281676197
  C        11.9182464351        5.2547142014       -3.1800831740
  C        11.0871126254        4.1962574805       -3.5523431816
  C        11.1330984224        3.5975314496       -4.8075697886
  C        12.0166357089        3.9679454525       -5.8716581402
  C        12.7911713872        5.0625764677       -5.5117663964
  C        12.7232239919        5.7403717215       -4.2448063898
  H        13.3077569263        6.5988427959       -3.9474441304
  H        13.2950443064        5.4616560678       -6.4122270482
  H        11.8787966507        3.3872767287       -6.8028596884
  H        10.4286471919        2.6538468708       -5.0194956702
  H        10.4810404218        3.8200910305       -2.7042816398
  C        18.3178919551        6.3739004525        0.3774421820
  C        17.2857443872        7.1108168728        1.0184423629
  C        16.1643497778        7.5831760129        0.2785130240
  C        15.0205043227        8.1560113670        0.8882995245
  C        14.0315415808        8.7978302233        0.1235366232
  C        17.3867863201        7.6321884251        2.4893436705
  C        18.1639853213        8.7653559559        2.8556346249
  C        18.0633694789        9.2796339716        4.1600857734
  C        17.1959593461        8.7064049479        5.0821475976
  C        16.4946676080        7.5309590745        4.7763254496
  C        16.6292264104        6.9813719961        3.4892223423
  H        14.8865377994        7.9464249402        1.9325001664
  H        13.1589817221        9.2974262727        0.5691062854
  H        18.8213750045        9.2606723169        2.1376413713
  H        18.6822040995       10.1450977020        4.3973612961
  H        17.2164928596        9.1340920186        6.0706821144
  H        15.7243220987        7.1284039066        5.4739229176
  H        16.1753342961        6.0084846264        3.2239407827
  C        18.3955072734        6.4041618984       -1.1581965350
  C        19.4347381351        5.7771210916       -1.7951374025
  C        20.5395952000        5.2971478511       -1.0763719261
  C        20.5958376942        5.3457735976        0.3716320874
  C        19.4387670452        5.7599853662        1.0599692674
  C        16.2024061247        7.6091051940       -1.1654405721
  C        17.3246814213        7.0343478070       -1.8857236130
  C        17.3378486624        7.3348276567       -3.3794078630
  C        18.2576452499        8.3515602581       -3.7422263089
  C        18.3453028965        8.7056269342       -5.0538489058
  C        17.4454764043        8.1845959228       -6.0187193013
  C        16.5682115543        7.2102853141       -5.6332595945
  C        16.5034381094        6.7223784482       -4.3259969738
  H        15.7701145670        5.9182271353       -4.0642182123
  H        15.8369822381        6.8192116457       -6.3342609128
  H        17.4749967725        8.6200971466       -6.9796765801
  H        18.9695190673        9.5104668004       -5.3827642706
  H        19.0479909072        8.5495441273       -3.0329606079
  C        15.2405723867        8.3235519572       -1.9440831693
  C        14.1862541715        8.9035261961       -1.2757797308
  H        13.3290618559        9.3926240988       -1.8133031765
  H        15.4070917689        8.4619134514       -2.9950532700
  C        19.3352212310        5.3962016413        2.4788449157
  C        18.7765633779        4.1703393368        2.8287788351
  C        18.6922591001        3.7299383035        4.1907094726
  C        19.2803247822        4.5471371758        5.1609055917
  C        19.8727375035        5.7822092391        4.8422979246
  C        19.8779988937        6.2466081932        3.5009750244
  H        20.2310890361        7.2327407104        3.3084023487
  H        20.4886796455        6.4306307025        5.5388723224
  H        19.1590437763        4.2876895774        6.1638053465
  H        18.3164068457        2.7619915000        4.4615361354
  H        18.4747968264        3.4837868580        2.0826339234
  C        21.7996630739        4.8359031017        1.0373679081
  C        22.8621653768        4.3165080763        0.3299553760
  C        22.7356462838        4.2755910851       -1.0986321532
  C        21.6395129773        4.7262154416       -1.7824271257
  H        21.6850230651        4.6900611512       -2.8834898559
  H        23.5690214168        3.8814927378       -1.6636237471
  H        23.8549453499        4.0550409177        0.6838739303
  H        21.7455222283        4.8809008910        2.1318489873
  C        19.3503988575        5.3322350337       -3.2322445639
  C        18.4984263468        4.2201046069       -3.5709101884
  C        18.6295372767        3.5762594193       -4.7904244950
  C        19.5177210543        4.1242994310       -5.7634854209
  C        20.2226221283        5.3175626198       -5.5441252953
  C        20.2149839524        5.8194132518       -4.2652345395
  H        20.8530736137        6.7016482789       -3.9759148310
  H        20.8163162032        5.5872380409       -6.3637901714
  H        19.6469934072        3.6354660548       -6.7425235552
  H        18.0558397808        2.6701086925       -5.0503611159
  H        17.7903097434        3.8375064145       -2.7686933891
