140

  C        10.2901524994        7.1312242646        1.2925036992
  C         9.2948757830        7.8555664262        1.9374567810
  C         8.2395637552        8.4307049975        1.1710421240
  C         7.1874142582        9.1743201808        1.7871687541
  C         6.1387893895        9.7426581196        1.1037337740
  C         9.2226554900        8.1565171112        3.3672413874
  C         9.9947908428        9.1981289597        3.9326628541
  C         9.8395006710        9.5060767539        5.2708331293
  C         9.0249559839        8.8936605761        6.1908104901
  C         8.3303621865        7.7816432405        5.6835472730
  C         8.4221918862        7.4590134200        4.2795627080
  H         7.1682450182        9.2380135286        2.8487582018
  H         5.4837566432       10.4251198242        1.6411136802
  H        10.6134697540        9.8108115993        3.2316614090
  H        10.2631334468       10.4710214075        5.4665548300
  H         8.8606921735        9.1821305036        7.2696960429
  H         7.5337394032        7.3124836510        6.3078429813
  H         7.7572571823        6.6752532582        3.9721989196
  C        10.4012732149        7.1874871967       -0.1497390396
  C        11.3774685583        6.4726884577       -0.7795145619
  C        12.4362472300        6.0240786477       -0.0692063548
  C        12.4278444564        5.9302978923        1.3848334419
  C        11.2434496345        6.4285416249        1.9979630018
  C         8.3011718624        8.4435815466       -0.2607850315
  C         9.4133315578        7.9177166612       -0.9060260666
  C         9.6003814038        8.3304032762       -2.3906394652
  C        10.5696451257        9.2614164280       -2.7975047846
  C        10.6053016791        9.8252400275       -4.1088095701
  C         9.6052503862        9.4531302859       -4.9845215714
  C         8.6380280420        8.5562103031       -4.5499306853
  C         8.6047263185        7.9134010166       -3.3045672674
  H         7.8239338590        7.1619511558       -3.0967150333
  H         7.9837075023        8.1254763547       -5.3218237683
  H         9.5491390799        9.8479246910       -6.0275250604
  H        11.4533466884       10.5335039364       -4.3549238954
  H        11.2768727521        9.6522978813       -2.0379221342
  C         7.1887177163        9.0872932288       -0.9462065678
  C         6.1100172359        9.6710774474       -0.3571341777
  H         5.3548465750       10.2050804698       -0.9448101882
  H         7.3255945352        9.2081926775       -1.9791120113
  C        11.1618663562        6.1150030949        3.4660081989
  C        10.3397644402        5.1247447544        3.8635332026
  C        10.3224201229        4.6695965340        5.1549413588
  C        11.1652776495        5.2790138257        6.0302780264
  C        12.0228193089        6.4422118011        5.6691447066
  C        12.0326831214        6.8192253610        4.3388841359
  H        12.6543209948        7.6379082567        3.9340473148
  H        12.5796366149        6.9203317801        6.4984613192
  H        11.1228145522        5.0117082367        7.1303618165
  H         9.6123607914        3.9771390668        5.5772745511
  H         9.6316170550        4.6089968264        3.2378664532
  C        13.5292300997        5.3082928023        2.0745418747
  C        14.5371792020        4.7608012275        1.3531874867
  C        14.6795476726        4.9028640143       -0.0527445274
  C        13.5933267666        5.5034883270       -0.7101357266
  H        13.7985973416        5.6514600320       -1.7794867190
  H        15.5709171707        4.5699600786       -0.5656408031
  H        15.3609829720        4.3237544109        1.9282100958
  H        13.6391210803        5.1970119073        3.1538091311
  C        11.2920060612        6.0085090565       -2.2217600374
  C        10.4359816079        4.9724560853       -2.6805516255
  C        10.4188306781        4.6021654611       -4.0565215615
  C        11.3788686485        5.1057065569       -4.9810503689
  C        12.2442790933        6.0463972587       -4.5007137594
  C        12.2899215333        6.4303914483       -3.1912462186
  H        12.9569002448        7.1653549052       -2.7482641420
  H        12.9748348859        6.4561012023       -5.2199842226
  H        11.2912694237        4.8187537541       -6.0371510261
  H         9.6436023816        3.9505736568       -4.4430312284
  H         9.6241889785        4.5255115248       -2.0912933649
  C        17.5320486389        7.2994992523        1.0837168677
  C        16.4381135280        7.9611649344        1.7868586838
  C        15.3457901712        8.5573514048        1.0736085561
  C        14.2157318842        9.0637542511        1.8260125484
  C        13.0877888697        9.5438788080        1.1439777092
  C        16.5436803217        8.2215354686        3.2831880563
  C        17.6227455924        9.0095190323        3.6380289592
  C        17.7863422313        9.3881184635        4.9944825156
  C        16.8454135395        9.1170364388        5.9748557476
  C        15.7696594764        8.2269407061        5.5654139985
  C        15.6595699468        7.7588157530        4.2539379898
  H        14.2140264233        8.9917565476        2.9197636682
  H        12.1478224564        9.8324310056        1.6168496538
  H        18.2770911849        9.3798057667        2.8413861276
  H        18.6821082411       10.0571474149        5.1331705061
  H        17.0506189245        9.3941691601        7.0201252910
  H        15.1050082805        7.8205441865        6.3114990238
  H        14.8892056018        7.0832870197        3.8442013189
  C        17.4236875225        7.3218583616       -0.3552202105
  C        18.4280743979        6.6223513259       -1.1343232646
  C        19.5807584497        5.9634197107       -0.4704913806
  C        19.5619705437        5.9281251104        0.9618041503
  C        18.5053717615        6.4373985127        1.7409044373
  C        15.2820052221        8.6099877939       -0.3582777669
  C        16.4017718809        8.1487608958       -1.0813725042
  C        16.5690876292        8.5329394127       -2.5283877136
  C        17.4820562164        9.5800352432       -2.8866589477
  C        17.3632892832       10.1054908803       -4.1626684606
  C        16.5508656785        9.4470205120       -5.1104837184
  C        15.8026307206        8.3251997284       -4.7521102925
  C        15.6784320037        7.9653755927       -3.4145358817
  H        14.9853064304        7.2392020689       -3.0419716883
  H        15.1985678326        7.8529206363       -5.4827140707
  H        16.5465058371        9.7533503156       -6.1884656006
  H        17.8727448889       11.0333069376       -4.4788893506
  H        18.3373975840        9.9275436889       -2.2694711225
  C        14.2407864812        9.3300732405       -0.9564296456
  C        13.1719147612        9.8241696531       -0.2332135562
  H        12.3234872058       10.2807945070       -0.7079142928
  H        14.3899544007        9.4893042856       -2.0069333327
  C        18.6328665370        6.0932460708        3.1755335016
  C        17.8362989134        5.1134547312        3.7689259989
  C        17.9393320573        4.7690760205        5.1003323847
  C        18.9162908638        5.4382025255        5.8941129832
  C        19.6775777158        6.4680056850        5.3408253866
  C        19.5208948255        6.7666094666        4.0015046061
  H        20.1436411899        7.5488766157        3.5932661291
  H        20.4622704265        7.0184663370        5.8582709599
  H        18.8626215158        5.2868527883        6.9816190451
  H        17.1672058291        4.1135075448        5.5076420401
  H        17.0934102047        4.6189327634        3.1024223217
  C        20.8241444774        5.4133922482        1.5876628841
  C        21.8685545166        4.8832002177        0.8538575569
  C        21.7274933152        4.7502340371       -0.5917990661
  C        20.6345370492        5.2882439673       -1.1684861401
  H        20.6293565877        5.2918929266       -2.2793042358
  H        22.4340113917        4.2878298241       -1.2423275593
  H        22.7541649679        4.3746412993        1.2971600324
  H        20.9692784228        5.5275329805        2.6523573896
  C        18.2981693365        6.2486905268       -2.5305671206
  C        17.4236152907        5.2170712232       -2.9201958342
  C        17.3166064606        4.7154857774       -4.2021913910
  C        18.0985661090        5.2489130126       -5.2329557220
  C        18.9139477601        6.3336916058       -4.9281286192
  C        19.0374740717        6.7682224996       -3.6263980011
  H        19.7112712277        7.6065024052       -3.3662936218
  H        19.5162225642        6.7530238979       -5.7280817906
  H        17.8622946791        4.8647716894       -6.2171723764
  H        16.6383174494        3.9325114376       -4.4940268063
  H        16.7735123513        4.8495115198       -2.0942642746
