140

  C        12.0310926985        7.2532940276        2.3593216400
  C        10.9585652406        7.8758164772        3.0406671951
  C         9.8042947807        8.3808669079        2.4139398989
  C         8.7394147437        8.9328493633        3.1383644648
  C         7.6157640685        9.4340883639        2.4544404009
  C        11.0473417026        8.0719275603        4.4715248521
  C        11.8206259230        9.1387549668        4.9126978532
  C        11.6594778886        9.7061055809        6.2222910333
  C        10.7572426340        9.1540725865        7.1450218975
  C        10.0335160671        8.0209758763        6.7158849831
  C        10.2465006279        7.4531162556        5.4809725738
  H         8.7986179759        8.9118207330        4.1902757127
  H         6.8064052019        9.9722587491        2.9443720132
  H        12.5736593911        9.5516162995        4.2428581760
  H        12.1059476182       10.7075192384        6.4310096411
  H        10.4820456436        9.5151635847        8.2110148020
  H         9.4733886382        7.3615509064        7.4044656185
  H         9.6003082464        6.5382717883        5.2501235348
  C        12.0363987289        7.2550837475        0.8852277108
  C        12.9876697199        6.4747052425        0.1261927681
  C        14.0796500183        5.8765889370        0.8051684219
  C        14.1744979204        5.9691943205        2.3075596131
  C        13.0749636004        6.5055848763        3.0117265835
  C         9.8505709608        8.3999819644        0.9821178943
  C        11.0158242013        7.9895233321        0.2437005044
  C        11.0149471819        8.4277465676       -1.1799684928
  C        11.7215226706        9.5015384761       -1.6523107957
  C        11.5401518503        9.9057394948       -3.0033125267
  C        10.8165950362        9.1139153291       -3.8755385478
  C        10.1336987971        8.0083311887       -3.3417182424
  C        10.2292150160        7.6303500576       -2.0634061070
  H         9.7861896126        6.7041485326       -1.6948139833
  H         9.5419879532        7.4041823909       -4.0884237891
  H        10.7779666325        9.3569433862       -4.9193037758
  H        12.0905928877       10.7431447179       -3.4063923117
  H        12.2105460826       10.0820576998       -0.9508611879
  C         8.6970763538        8.9051284155        0.3690229646
  C         7.6066405255        9.4451041198        1.0362760733
  H         6.7459886350        9.7285655062        0.4958981056
  H         8.7151805643        8.8973323941       -0.7154061795
  C        12.9897681288        6.1360499498        4.4513759622
  C        12.1269909330        5.0466258053        4.7387608628
  C        12.1096014762        4.4622923723        6.0310482158
  C        12.8969278108        4.9629039659        7.0554536481
  C        13.8286705676        5.9819430844        6.7676592180
  C        13.9121320444        6.5581801582        5.4777310412
  H        14.5361660578        7.4038451120        5.1785408181
  H        14.4367807815        6.4070825321        7.5111631247
  H        12.8725235201        4.5317399597        8.0620388756
  H        11.3933538365        3.6735622091        6.2625747546
  H        11.5412913896        4.5779479940        3.9433183011
  C        15.2859673943        5.2564782077        2.9026062763
  C        16.3310145649        4.6856771623        2.1849822001
  C        16.2561658875        4.7117015141        0.7387724405
  C        15.1852537693        5.2433446041        0.0542936395
  H        15.1364893720        5.0937680350       -1.0272654747
  H        17.1541822657        4.4508507464        0.2393848545
  H        17.1422576349        4.3664521200        2.7748370337
  H        15.3774069457        5.1737163960        3.9760600413
  C        12.8944309330        6.2250882408       -1.4121286338
  C        11.9074332968        5.3304410268       -1.8578584529
  C        11.7753853220        5.0394469796       -3.2569656577
  C        12.7489436665        5.4922460118       -4.1397153652
  C        13.6371427063        6.5393309141       -3.6958140544
  C        13.6452863648        6.8748393744       -2.3406108701
  H        14.3603844734        7.6933504985       -2.1615890906
  H        14.2858871597        7.1165677743       -4.4041091687
  H        12.8631845365        5.1008459923       -5.1445580816
  H        10.9576360221        4.4018278425       -3.6597514610
  H        11.1052508767        4.8893366678       -1.3192464033
  C        18.9891801456        7.2466918402        2.2422358243
  C        17.8993154660        7.9733164647        2.8936878018
  C        16.9368757092        8.5767061959        2.1265965507
  C        15.7944401923        9.1497301453        2.7656725028
  C        14.7957374120        9.8194185029        2.1072015766
  C        17.8999765276        8.3270329504        4.3860812355
  C        18.3174960822        9.6024633920        4.7568259299
  C        18.2842020831        9.9877727302        6.1754288239
  C        17.6965585841        9.1131158201        7.0971864341
  C        17.3749899477        7.7920567627        6.7298629670
  C        17.4630120302        7.4141509442        5.3907941886
  H        15.6636935873        9.0586680228        3.8460354702
  H        13.8936099370       10.2845856591        2.6212265991
  H        18.7206854317       10.2161495138        3.9626866661
  H        18.6072366034       11.0007893930        6.4720180069
  H        17.5676568233        9.4736584486        8.1144075481
  H        16.9392929880        7.2014259288        7.4709500854
  H        17.1430457097        6.3808720156        5.0905892373
  C        19.0832281615        7.1630482306        0.7398826605
  C        20.0552450157        6.3564619716        0.1147040953
  C        21.0787999394        5.7413482956        0.8702017006
  C        20.9204477487        5.7003262399        2.2819904299
  C        19.8048136198        6.3534951676        3.0009604779
  C        17.0109144476        8.5750734113        0.7100802019
  C        18.0411700230        7.9388827926       -0.0009312586
  C        18.1508249780        8.1685079835       -1.4986999244
  C        18.8130230259        9.2919153520       -1.9948001159
  C        18.7075876402        9.6606802585       -3.3255890084
  C        18.1020394250        8.8289720988       -4.3122220058
  C        17.3542387816        7.7556478044       -3.8104109695
  C        17.4441431497        7.3967931077       -2.4568729356
  H        17.0396769627        6.4434201297       -2.0609817844
  H        16.7305837599        7.1277117440       -4.4341972022
  H        17.9339014527        9.2117814729       -5.3352540029
  H        19.2814631484       10.5250880124       -3.6376175029
  H        19.2630321304       10.0265245712       -1.3439231128
  C        15.9138030869        9.2577799140        0.0139580373
  C        14.9016261200        9.8386064006        0.7019915879
  H        14.0980671440       10.3024633299        0.1290239844
  H        15.8842872028        9.1864948687       -1.0819319972
  C        19.7549424480        6.0520363392        4.4395048921
  C        19.3558395393        4.7917815821        4.7860269781
  C        19.4208720691        4.2519874104        6.0304891230
  C        20.0407354207        4.9835330721        7.0564954097
  C        20.4436796705        6.3160583415        6.7838057519
  C        20.3413331737        6.7852751775        5.4187817493
  H        20.7193982120        7.7784970635        5.2106461166
  H        21.0550384877        6.8906583517        7.5325290074
  H        20.2717014157        4.5569507989        8.0388497904
  H        19.0785544469        3.2648312864        6.2752372041
  H        18.9036746374        4.1165224947        4.0372959241
  C        21.8461446170        4.9256025118        3.0302694317
  C        22.9072021533        4.2768360187        2.4014677872
  C        23.0462902688        4.3098522723        1.0008194562
  C        22.1694289032        5.0678790310        0.2921475400
  H        22.1750996501        5.0690729422       -0.7638530310
  H        23.8803082237        3.8293392502        0.4949471177
  H        23.6545680298        3.6981171421        2.9087255484
  H        21.7577641930        4.7497655968        4.0914002098
  C        20.0603762172        6.0835000537       -1.3209808178
  C        19.4296697618        4.8767173410       -1.7612801043
  C        19.3487659869        4.4692821681       -3.1119537668
  C        19.8743140947        5.2967796423       -4.1011949578
  C        20.4168015795        6.5379595177       -3.6845681940
  C        20.5584991276        6.8751576669       -2.3450978923
  H        21.1310288270        7.7377536520       -2.1672220879
  H        20.8341968125        7.1051710105       -4.4869453989
  H        19.8046046891        5.1193523698       -5.1682907855
  H        18.7504052507        3.6560657435       -3.4481855660
  H        19.0259997114        4.1234615890       -1.1305687433
