140

  C        11.1187134391        7.4442511120        1.5366349449
  C        10.0674692247        8.1370503223        2.2300752185
  C         8.9436333550        8.7718614627        1.5816775462
  C         7.8248862554        9.2937289433        2.2887997119
  C         6.6549012107        9.5446513185        1.6298555940
  C        10.1444862931        8.4516365520        3.6749115406
  C        11.0068090237        9.4754940177        4.0840798956
  C        10.9487723036       10.0276357680        5.3503208120
  C        10.2389797619        9.3783069866        6.3444485713
  C         9.3004453247        8.4565778951        5.9182834060
  C         9.2357201088        7.9972947311        4.5646775082
  H         7.8085357460        9.4331965184        3.4192602664
  H         5.8325791310        9.8449244023        2.2528573570
  H        11.6767637962        9.9307100780        3.3889886662
  H        11.5522386497       10.8941441039        5.5097686351
  H        10.3717202745        9.5297583642        7.4030878115
  H         8.5275654478        8.0322410592        6.6597583142
  H         8.5118281954        7.1791668488        4.2924652976
  C        10.9865205451        7.4454963506        0.0686840454
  C        12.0159120544        6.7747564552       -0.6201798084
  C        13.1355231565        6.1795475100        0.0079000352
  C        13.2509438632        6.1573436527        1.4747243996
  C        12.1270219164        6.6585011029        2.2191920962
  C         8.9491660231        8.7795826582        0.2031384180
  C        10.0011083999        8.2966629155       -0.6028337892
  C         9.9545661157        8.5623908893       -2.0534891793
  C        10.3488533474        9.8172701173       -2.5270184663
  C        10.2938475929       10.1190271437       -3.8903496547
  C         9.6317427334        9.2528049466       -4.7979616852
  C         9.0341948302        8.1002253835       -4.3293915983
  C         9.1806717588        7.7561247814       -2.9578470027
  H         8.6473160164        6.8859921355       -2.6193726108
  H         8.5208172976        7.3914111927       -4.9811425581
  H         9.4894121682        9.5930065933       -5.8131592218
  H        10.7083035024       11.1049963268       -4.2124247565
  H        10.8337401426       10.4755014797       -1.7979998463
  C         7.7630639248        9.2896093421       -0.4676578053
  C         6.5581697486        9.6173094542        0.2003295072
  H         5.6168385247       10.0481614188       -0.2577578616
  H         7.7793805330        9.4189423826       -1.5688945032
  C        12.1097610528        6.3037524812        3.7147247120
  C        11.3902829015        5.1901877950        4.2455227123
  C        11.6342276096        4.8443272116        5.5475816562
  C        12.5310686524        5.4346814053        6.3941324957
  C        13.3404584207        6.4812995680        5.8626068225
  C        13.0838290342        6.9004734090        4.5190386881
  H        13.6194605965        7.7060306217        3.9915331429
  H        13.9658625571        7.1468740750        6.4790169378
  H        12.6459371890        5.0132584937        7.3938096626
  H        11.1482119883        3.9218522986        5.8661098828
  H        10.6661990469        4.7776495511        3.5944811715
  C        14.3986238262        5.4978855871        2.0659894361
  C        15.4576562772        5.0059368353        1.2629558722
  C        15.3432519149        5.0807166016       -0.1032379888
  C        14.1660238793        5.5670481843       -0.7386699402
  H        14.0851779571        5.4433530190       -1.7948256541
  H        16.0272712854        4.5487719403       -0.7386624180
  H        16.3648898203        4.5146485904        1.6708165252
  H        14.5655995202        5.4918400382        3.1583645835
  C        11.8669683449        6.3712190022       -2.0543943040
  C        11.1485440745        5.2081659531       -2.3455634310
  C        11.1766894141        4.6639962330       -3.6547431111
  C        11.8643404582        5.3093022029       -4.6797685097
  C        12.4843979020        6.5298371893       -4.3928498249
  C        12.5334155346        7.0727615478       -3.1180143399
  H        13.1604402043        7.9257519127       -3.0213713749
  H        12.8580782359        7.1644149919       -5.2191879297
  H        11.9411746890        4.8737679292       -5.7044445104
  H        10.6355320457        3.7248932398       -3.8362515780
  H        10.6623559750        4.7520233961       -1.4396315420
  C        18.2375836858        7.3842962162        1.5144876596
  C        17.2332869694        8.1904412168        2.2368993573
  C        16.3005225945        8.9751280693        1.4653969016
  C        15.2303267572        9.6012237625        2.1438470240
  C        14.1023857672       10.0208368008        1.5130064994
  C        17.3502266118        8.4719433544        3.7054147418
  C        18.0738653273        9.5787960046        4.1111995524
  C        18.0282298247       10.0872066758        5.4386170859
  C        17.1882323403        9.4679146213        6.4006676614
  C        16.5289616145        8.3118548051        6.0700961252
  C        16.5338086690        7.8353455934        4.7478715073
  H        15.2764779133        9.8577873369        3.2140517813
  H        13.2386921455       10.3697487504        2.0739214272
  H        18.8126957242        9.9886748506        3.4481675585
  H        18.5353614581       10.9930012200        5.6620273024
  H        17.0922135616        9.8468908590        7.4095883456
  H        15.9746786961        7.7462164331        6.7992991204
  H        15.8391066410        7.0067893951        4.5687431126
  C        18.1847498904        7.3959470358        0.0339193407
  C        19.1495368503        6.5505449146       -0.6942486547
  C        20.1913837771        5.9301985004        0.0222443741
  C        20.2392035908        5.9816394007        1.4371930325
  C        19.2098204297        6.6652763781        2.2007602187
  C        16.2299076860        8.8704237850       -0.0115329273
  C        17.2415932673        8.1476564422       -0.7504617123
  C        17.3052619383        8.3494171227       -2.2163665101
  C        18.3401195642        9.1707403975       -2.5750300226
  C        18.4146949417        9.7889207460       -3.8289217045
  C        17.4140533341        9.5076786392       -4.8029511781
  C        16.4047145248        8.6070003715       -4.4847284045
  C        16.2877302512        8.0674288676       -3.1446530884
  H        15.5029112039        7.3347855838       -2.8994052807
  H        15.7116128230        8.2721623258       -5.2221302643
  H        17.5822692629        9.8103654621       -5.9040510738
  H        19.1924431989       10.4433035936       -4.0880970086
  H        19.1492596348        9.3444098896       -1.8989109092
  C        15.0369950873        9.3861992466       -0.6247406286
  C        13.9753745916        9.8837207796        0.0909512050
  H        13.0835002063       10.2563655671       -0.4479824936
  H        14.8796719694        9.1727599069       -1.7024041504
  C        19.2774926975        6.3219285536        3.6768382330
  C        18.5250949504        5.2202403028        4.1098110162
  C        18.6351114995        4.6783081796        5.3810359237
  C        19.6030665986        5.2388572980        6.2594187178
  C        20.3574693631        6.3651442745        5.8396945683
  C        20.2539865581        6.8601520026        4.5408988218
  H        20.8580955736        7.6947431571        4.2026495216
  H        20.9381995207        6.8983495509        6.6181846962
  H        19.7327664497        4.9120837968        7.3192355981
  H        18.0424175162        3.8412024057        5.7585013359
  H        17.8360705279        4.5886206318        3.5029967549
  C        21.2916512685        5.2713644468        2.0792519476
  C        22.2671635649        4.5922967342        1.4070252092
  C        22.1470575546        4.5561823603       -0.0140651248
  C        21.2097796204        5.2054984774       -0.6892425943
  H        21.1735378831        4.9697686850       -1.7639445044
  H        22.9865344827        4.1211956532       -0.5915383433
  H        23.0724603223        4.1278334215        2.0177525411
  H        21.1987614245        5.0653525919        3.1580456337
  C        19.0674770296        6.1852832601       -2.0970958342
  C        18.2778785522        5.0981698601       -2.4873648747
  C        18.1203145349        4.7837218138       -3.8713264066
  C        18.7169749856        5.5331166754       -4.8619455277
  C        19.6877041001        6.5146499388       -4.4679832052
  C        19.8967937817        6.8159853840       -3.0807500618
  H        20.6867277479        7.4998289326       -2.7585192834
  H        20.2701506408        6.9271791832       -5.2685148446
  H        18.7279701861        5.2680683262       -5.9189390611
  H        17.4000848882        4.0119301627       -4.2224803503
  H        17.7472850293        4.4867361714       -1.7636127133
