140

  C         5.1949726086        0.0741050505       16.3403362886
  C         6.2715174194        0.6999195985       16.9518276914
  C         7.4170238175        1.1374506721       16.2901437421
  C         8.4961677604        1.7738168256       16.9819696418
  C         9.5027687915        2.3699986661       16.2664013162
  C         6.2287982826        1.1055525818       18.4450072934
  C         5.5140577940        2.1635667478       18.9869605473
  C         5.7431209161        2.7378255158       20.3063606930
  C         6.6605305980        2.1429276424       21.0967492544
  C         7.3007726442        0.9794872982       20.5854836461
  C         7.1053349658        0.4106054978       19.3370836087
  H         8.4606192589        1.9061171027       18.0970725205
  H        10.1169428149        3.1374633304       16.7610108764
  H         4.8020395546        2.6238967722       18.3350055333
  H         5.1312235546        3.5635508696       20.6015375537
  H         6.7744613432        2.4769230225       22.1159257709
  H         8.0159167970        0.4608592247       21.2467148966
  H         7.6735762637       -0.5405316459       19.1225292371
  C         5.1312560542       -0.0620797327       14.8779294828
  C         4.0547454370       -0.7123324285       14.2662429357
  C         3.0101727244       -1.2172270864       15.0690532584
  C         3.1471737732       -1.2115722929       16.5052382710
  C         4.2465679844       -0.6033292660       17.1023073261
  C         7.4302730004        0.9704677230       14.8301030203
  C         6.3033837486        0.4407450160       14.1819407917
  C         6.2423901046        0.6255761473       12.7175759227
  C         5.4822574322        1.7006634898       12.2530338091
  C         5.4802596039        1.9839434966       10.8874384204
  C         6.2077784043        1.2896270086        9.9365850723
  C         7.0305991304        0.2494934696       10.4248572052
  C         7.0679117283       -0.1294368943       11.7971499092
  H         7.6734522943       -0.9056521904       12.1573168613
  H         7.6537293802       -0.2756550084        9.6856994692
  H         6.0979548547        1.4702776749        8.8406688417
  H         4.9266302483        2.8401597996       10.5931904208
  H         4.9246999531        2.3378757329       12.9667878366
  C         8.5906908357        1.5063486438       14.1914876497
  C         9.5383224577        2.2307138553       14.8651490812
  H        10.3069608357        2.7497567395       14.2704207825
  H         8.6344896724        1.4513634457       13.0945637651
  C         4.3829527838       -0.9193902573       18.5387007121
  C         5.2374329906       -2.0164212586       18.7837254496
  C         5.2900985833       -2.6412991465       19.9847801987
  C         4.5636715327       -2.0044000539       21.0738772395
  C         3.6705011065       -0.9592378304       20.8739639455
  C         3.6502754098       -0.3262807966       19.5848355254
  H         3.0434271837        0.5188610626       19.3589959885
  H         3.1047526684       -0.5660216607       21.6753158636
  H         4.7783502591       -2.3718074478       22.0883786528
  H         5.9695399128       -3.4488545025       20.1640147120
  H         5.7706968345       -2.4061314110       17.9343964680
  C         2.2114449206       -2.0683415392       17.2837175172
  C         1.1887843198       -2.7217693848       16.6863504333
  C         1.1236635271       -2.7873226607       15.3011727060
  C         1.9607254769       -2.0229999712       14.5054781731
  H         1.7368514894       -2.1551030248       13.4278989246
  H         0.3674171643       -3.3730201510       14.7573567021
  H         0.5633054993       -3.3542970512       17.3144596701
  H         2.4138384307       -2.0931130409       18.3385839933
  C         4.0714638112       -1.2432600026       12.7942705255
  C         4.6795942718       -2.4444792101       12.5386900328
  C         4.7401921734       -2.9658393352       11.2441614826
  C         4.0744813160       -2.3521623039       10.1941864726
  C         3.5455094333       -1.0930501960       10.4490362283
  C         3.4474570082       -0.5089271568       11.7176786705
  H         3.2365565299        0.5542545128       11.8173444519
  H         3.1708450082       -0.5409528182        9.5439088290
  H         4.2585537600       -2.6493834513        9.1646579974
  H         5.2129180057       -3.9539267316       11.0811954696
  H         5.1943462713       -2.9501038468       13.3635074216
  C        12.5522047063       -0.3171633431       16.1468598882
  C        13.4941760104        0.5482227944       16.7268834321
  C        14.6046754950        1.0976025052       16.0799404476
  C        15.6054112714        1.8736587418       16.7682921218
  C        16.6060379493        2.4253796129       16.0313875589
  C        13.3263059867        0.9371616226       18.2122851820
  C        12.3103824534        1.8799565833       18.3940574564
  C        12.1852040542        2.3739116975       19.6454723948
  C        12.9206505723        1.9680511784       20.7350307922
  C        13.9522472871        1.0317433640       20.5799949298
  C        14.1275407279        0.4884749515       19.2432177667
  H        15.6577014287        1.9115572178       17.8802460756
  H        17.4208878442        2.9409359110       16.4713420197
  H        11.6142676142        2.0300824878       17.5817159462
  H        11.3914418934        3.1476016929       19.8586554431
  H        12.6810292752        2.4339547455       21.6804482407
  H        14.4623552523        0.6358465242       21.4996398413
  H        14.7941250193       -0.3258802900       19.0125728717
  C        12.5337344506       -0.4188558548       14.7046328947
  C        11.4735485912       -1.0912585843       14.0908927208
  C        10.3796487342       -1.6131921799       14.7832579662
  C        10.3720397854       -1.5545363552       16.2754591029
  C        11.5110840218       -0.9764168570       16.9099590123
  C        14.6174929757        0.9447612358       14.5963400380
  C        13.5733375318        0.2584816084       13.9591668097
  C        13.3997804906        0.6266496355       12.4815457796
  C        12.6626019190        1.7371806657       12.1205936401
  C        12.5939243871        2.3284453382       10.8915259187
  C        13.2718661870        1.7680042772        9.8504590800
  C        14.0894825365        0.6157853139       10.1410370960
  C        14.2363514329        0.1215337849       11.4054007887
  H        14.8403848600       -0.7429593657       11.5650356008
  H        14.6345710866        0.1326475459        9.3606743476
  H        13.2784395536        2.2207630810        8.8648532060
  H        11.9311679259        3.1784007366       10.8387526062
  H        12.0974914489        2.2739769147       12.8884713244
  C        15.6309351888        1.6644068615       13.9055868606
  C        16.5055225735        2.4409990410       14.6257908598
  H        17.2271997603        3.0052098349       14.0803070796
  H        15.6772276657        1.6717059336       12.8375500121
  C        11.5432724794       -1.2435047839       18.3807197569
  C        12.4090763163       -2.3184559393       18.7271264054
  C        12.6504210790       -2.6180988412       20.1467175248
  C        11.7797161980       -2.0492723549       21.0742317863
  C        10.7771057357       -1.1222520829       20.6558117398
  C        10.7255471946       -0.6559199538       19.3599717293
  H        10.0662605554        0.1816648518       19.1123320414
  H        10.2455502927       -0.6426911076       21.4465533138
  H        11.9051983464       -2.4188282512       22.1076255291
  H        13.4166136231       -3.2812605777       20.5565387101
  H        13.0553007463       -2.7946293786       18.0143567110
  C         9.2134688146       -2.0430908135       16.9405004785
  C         8.2256943687       -2.6468506443       16.2145207825
  C         8.2729584839       -2.7834709784       14.8147343946
  C         9.3528956027       -2.3408555758       14.1681673789
  H         9.4555193027       -2.4547544854       13.1330946395
  H         7.5053694048       -3.3947371067       14.3546068897
  H         7.2650437358       -2.9168796891       16.6947875721
  H         9.1246585510       -1.9006264649       17.9509371124
  C        11.5126897893       -1.4188796513       12.5595321375
  C        12.3842825007       -2.4967995020       12.1291668024
  C        12.1051635122       -3.2184482037       10.9309728240
  C        11.0327476336       -2.8125493421       10.1254576481
  C        10.3012477747       -1.5939770119       10.3827980006
  C        10.5205067539       -0.9241207430       11.6111758531
  H         9.9401768839       -0.0344457412       11.8339743530
  H         9.4585881320       -1.4942176479        9.7269172565
  H        10.5843363451       -3.5096392295        9.3898413872
  H        12.7286494454       -4.0916499376       10.7825000830
  H        13.2118951568       -2.8295355151       12.7895705994
