140

  C        12.4048964805        5.6555869524        0.1836919862
  C        11.3658678652        6.3790767196        0.8669145240
  C        10.2963384149        6.8900921852        0.2040518630
  C         9.3320034451        7.8016343475        0.7480029120
  C         8.4058510055        8.4652139132        0.0161397006
  C        11.4988140390        6.7508737664        2.3133494748
  C        12.3218862348        7.8766275858        2.7121662614
  C        12.2040622567        8.4783235954        3.9626999753
  C        11.4066019071        7.9020216266        4.9565743281
  C        10.6499200087        6.7714680557        4.5660521227
  C        10.6595543925        6.2077338411        3.3059013816
  H         9.2926158961        7.9025271639        1.8611849748
  H         7.7087441869        9.0899834322        0.5371085220
  H        12.8615264313        8.3673282712        1.8456943572
  H        12.7560217691        9.3886082604        4.1584524040
  H        11.2432646777        8.4652616814        5.8741074922
  H         9.9402006705        6.3610071564        5.2738838221
  H         9.9250051210        5.5353191126        3.1345432868
  C        12.4225799777        5.6172754760       -1.3076787501
  C        13.5420354322        4.9661411297       -2.0764488851
  C        14.6694572628        4.4893277507       -1.3176310540
  C        14.5620252640        4.5334643654        0.1444933367
  C        13.4890056101        5.0717567931        0.8996959575
  C        10.3489620091        6.8533657110       -1.2702205890
  C        11.3550375151        6.2300329984       -1.9719932976
  C        11.4098890700        6.5884642656       -3.3844231549
  C        12.0968135621        7.7573789450       -3.8489180844
  C        12.0578838511        8.1336574244       -5.2075570776
  C        11.2834778514        7.4050850676       -6.1263774735
  C        10.7166084315        6.2188706496       -5.7189804131
  C        10.7623337903        5.8062933648       -4.3610316617
  H        10.2233699972        4.8625351364       -4.0014112744
  H        10.1697313494        5.5416999588       -6.4220374817
  H        11.3151044515        7.6697935060       -7.1289861876
  H        12.7180730939        9.0165467222       -5.5020639959
  H        12.5616439666        8.5100583340       -3.1773625629
  C         9.3545615276        7.6194140188       -1.9723279204
  C         8.3774040662        8.3760822900       -1.3652775685
  H         7.6556606427        8.9165214998       -1.9798164013
  H         9.3034306591        7.5312057952       -3.0455900586
  C        13.5037777349        4.7431508269        2.3797673950
  C        12.8782312819        3.6007604854        2.8448510842
  C        13.2574567179        3.0189871775        4.0446925071
  C        14.1162790698        3.7200164596        4.8792677025
  C        14.6702245705        4.9024327241        4.4597736284
  C        14.3882272964        5.4538641922        3.2099906583
  H        14.8986130598        6.3595969488        2.8530466679
  H        15.3116109309        5.4253136045        5.1202721172
  H        14.2355156008        3.1526108453        5.8020799731
  H        12.8469428753        2.0883003037        4.4076503007
  H        12.0927177821        3.1348345709        2.2646333335
  C        15.6793315013        3.8215290340        0.8356574525
  C        16.6704991236        3.1712909403        0.2406350089
  C        16.8048909668        3.2193316517       -1.1718780648
  C        15.8325582576        3.8642274091       -1.8816760027
  H        15.9204662692        3.7775076888       -3.0002797241
  H        17.6381631214        2.6781304699       -1.6728464696
  H        17.4856620857        2.5936249857        0.6998869868
  H        15.6677625448        3.7045947581        1.9253755316
  C        13.5227107562        4.6497765458       -3.5631778885
  C        12.9135188926        3.3834924718       -3.9928406952
  C        13.1766582467        2.7970226207       -5.2156703251
  C        14.0482873231        3.4655116596       -6.1261767045
  C        14.6395815434        4.6522949061       -5.7602180655
  C        14.3738963460        5.2333226781       -4.5143145035
  H        14.8803394215        6.1762898653       -4.1223791719
  H        15.2932559865        5.1504502970       -6.4602073678
  H        14.1882874649        3.0005470978       -7.0734523155
  H        12.5971652297        1.8358641839       -5.5813431678
  H        12.0965702607        2.9774187229       -3.3726699296
  C        19.7467079027        5.7298109826        0.0149557942
  C        18.7402166332        6.4351245177        0.7033080914
  C        17.5465480771        6.8696584093        0.0345139633
  C        16.3600852508        7.2367901509        0.6710276759
  C        15.3615410067        7.7611728547       -0.0463254713
  C        18.8390006862        6.8886432021        2.1088108220
  C        19.5731476750        8.0265960070        2.3790185293
  C        19.5244487691        8.6668608675        3.6469069548
  C        18.5977858252        8.1529661300        4.5523726764
  C        17.8874608494        6.9849354667        4.3435857914
  C        18.0315055889        6.3315781480        3.1264779151
  H        16.2505691241        7.1270053524        1.7248381716
  H        14.4456433072        7.9791743541        0.4226555453
  H        20.1422118673        8.4733865708        1.5711597098
  H        20.0901343786        9.6412534250        3.7648984056
  H        18.5757084759        8.7404680483        5.4523739900
  H        17.1399426985        6.6168891028        5.0568305324
  H        17.2937002181        5.5221602389        2.9685346624
  C        19.7909206012        5.7474917436       -1.4706898965
  C        20.8365684979        5.0780986881       -2.2078339202
  C        21.8720134781        4.5562317719       -1.4634512842
  C        21.9208689655        4.5954836884        0.0023178614
  C        20.7948781009        5.0788231660        0.7445090963
  C        17.6694668578        7.0533716229       -1.4362571903
  C        18.7589017396        6.5069827542       -2.0886743999
  C        18.8843224443        6.8285393859       -3.6145229106
  C        19.5743246678        7.9414565440       -3.9633278442
  C        19.5858423390        8.3743406386       -5.3365713024
  C        18.8833627704        7.6218703820       -6.2745872643
  C        18.1588355412        6.4795765792       -5.8531389639
  C        18.1165531950        6.1133161881       -4.5277009645
  H        17.4846174845        5.3173912097       -4.3200348930
  H        17.5261579457        5.9814929870       -6.5325372519
  H        18.8616705429        8.0024541885       -7.3076916481
  H        20.0361669898        9.2754864617       -5.6726621970
  H        20.1550270100        8.5315419218       -3.3120785147
  C        16.6228089266        7.6540434677       -2.1708070720
  C        15.4570203845        7.9697029822       -1.4807094358
  H        14.6402271843        8.4168916297       -1.9972384870
  H        16.7599269099        7.8389676522       -3.2400880604
  C        20.7880779235        4.8963084565        2.2219921781
  C        19.9063481904        3.9507679431        2.7417969925
  C        19.8302861531        3.6718674951        4.1293265642
  C        20.6182930002        4.3366877881        5.0478331026
  C        21.5283049830        5.2166465596        4.5365457171
  C        21.5957089991        5.5819423204        3.1378801442
  H        22.3598432648        6.2470332233        2.7575213078
  H        22.0918761938        5.8356279387        5.2465020747
  H        20.5697635026        3.9824626077        6.1024382715
  H        19.1495234543        2.9048398571        4.3589585067
  H        19.2175568570        3.4871773149        2.0662620741
  C        23.0746239293        4.0590972473        0.6858934149
  C        24.1371286433        3.5378734343       -0.0016503201
  C        24.0774486753        3.4980996138       -1.4384177278
  C        23.0210123996        4.0118618351       -2.1197019597
  H        23.0210086551        3.9250494386       -3.2062945652
  H        24.9369745921        3.2097294249       -2.0454276467
  H        25.0882809560        3.1675274969        0.3734432704
  H        23.0181419583        4.0694532564        1.7856518401
  C        20.6411024144        4.6659951033       -3.6717047950
  C        19.7107119350        3.6539945772       -3.8609721394
  C        19.5733272576        2.9556438631       -5.0940256548
  C        20.3135273387        3.4251297289       -6.1929049749
  C        21.1473609709        4.5371373211       -6.0269657763
  C        21.3786864132        5.1074518852       -4.7861211647
  H        22.1408735816        5.8100964010       -4.5963387467
  H        21.7686717008        4.8658221370       -6.8313872515
  H        20.0823368347        3.0555789121       -7.1887072768
  H        18.9744971145        2.1057684066       -5.1028056600
  H        19.3299823905        3.2293342054       -2.9748643283
