140

  C         4.0332193497       -0.4540063918       14.4871420255
  C         5.0959597986        0.3089860104       15.0764405750
  C         6.1891993619        0.7591540672       14.2577832600
  C         7.2844679580        1.3370841151       14.9514130753
  C         8.3938903915        1.7419200302       14.2463289776
  C         5.0989442193        0.5770318751       16.5440527827
  C         4.4132253799        1.7090848990       17.0146878467
  C         4.2544340657        2.0096726203       18.3430262824
  C         5.0185961612        1.3163530070       19.2673002047
  C         5.7698921290        0.1932937862       18.8530999869
  C         5.8143624647       -0.1760912547       17.4998817143
  H         7.3194881783        1.3288315558       16.0244693054
  H         9.2759264829        2.1536736184       14.7733128614
  H         3.8355575783        2.2977135267       16.2581114462
  H         3.5327119327        2.8032463718       18.6433402000
  H         4.8081901737        1.5006702823       20.3000674281
  H         6.2737070523       -0.3547845413       19.5752952704
  H         6.4274406810       -1.0193836959       17.1568411571
  C         4.0437261666       -0.5396465261       12.9711287808
  C         3.0206534484       -1.4028075891       12.3405741197
  C         2.0081238229       -1.9822688890       13.0899716072
  C         1.9971515104       -1.9112784245       14.5386465942
  C         3.1190833347       -1.2720389562       15.2288959884
  C         6.2023436044        0.7293900210       12.7916608858
  C         5.0852831430        0.0997814212       12.1575254314
  C         4.9875752037        0.4159317475       10.6722768853
  C         4.1433056140        1.4335678432       10.3075460419
  C         4.1909747428        2.0885058528        9.0726605724
  C         5.1915836178        1.5997233217        8.1545588690
  C         6.1137036274        0.5930894887        8.5689737154
  C         5.9423740451       -0.0492353994        9.7694660280
  H         6.4476883612       -0.9134321402       10.1196973509
  H         6.7686812671        0.2754032432        7.7273849818
  H         5.2356454756        1.9473959736        7.1037258514
  H         3.4921677045        2.9179073893        8.8151064965
  H         3.4661823739        1.7969615128       11.1689108853
  C         7.3801549011        1.2063265150       12.0629672067
  C         8.3918817404        1.7995734440       12.8093850045
  H         9.2727771999        2.3249284877       12.2999040073
  H         7.5094805512        1.2631505642       10.9797255284
  C         3.2757246819       -1.6685796524       16.6312096511
  C         4.1294987522       -2.6951087113       16.9941412448
  C         4.1250775545       -3.2457378698       18.3039661115
  C         3.3533932167       -2.6897796072       19.3279679131
  C         2.5311715048       -1.6074818662       18.9145597074
  C         2.4564541966       -1.1577069453       17.6160654404
  H         1.8719396239       -0.2606376287       17.3640323898
  H         1.8373317327       -1.1280538133       19.5820759618
  H         3.4525508238       -3.0753905324       20.3367907211
  H         4.7899259494       -4.0601887093       18.5056925298
  H         4.8440336230       -3.0627025270       16.2460159638
  C         0.9483449121       -2.5756413594       15.2499141365
  C        -0.1159531076       -3.0309680809       14.5180101371
  C        -0.2422607098       -2.9543631523       13.0927012184
  C         0.8789496343       -2.5834687735       12.4000937863
  H         0.9892431975       -2.5426438055       11.2902257920
  H        -1.1055822982       -3.4481486652       12.6012744522
  H        -0.8889329861       -3.5341742575       15.1004171489
  H         0.9389914817       -2.8183967894       16.3016713540
  C         3.1292622059       -1.6638452181       10.8516152441
  C         3.9450369315       -2.7148626529       10.5333171501
  C         4.1054903557       -3.2258816863        9.2478812931
  C         3.5577803582       -2.5501952991        8.1320670705
  C         2.7685933967       -1.4763827596        8.4862222024
  C         2.5327181624       -1.0184764890        9.7968528757
  H         1.9026032255       -0.1015205924        9.9764871674
  H         2.2819780236       -0.9867427409        7.5971558713
  H         3.8199292813       -2.8752885615        7.1406679743
  H         4.8936194398       -4.0603704685        9.1432644050
  H         4.5292437142       -3.2110567907       11.3101509165
  C        11.5288709086       -0.8618772696       14.0623034313
  C        12.5833501175       -0.0923632201       14.6800981986
  C        13.6773854311        0.4929522829       13.9591841948
  C        14.8307485566        1.1149695247       14.5896632508
  C        15.8020332796        1.8191814943       13.8480021295
  C        12.5091647001        0.3825474480       16.0955051729
  C        11.8443073161        1.5601997682       16.4385710782
  C        11.8471581246        1.9716476428       17.7408918839
  C        12.2996835115        1.2357883538       18.7822188221
  C        13.0379752849        0.0739604595       18.4779999734
  C        13.1487529431       -0.3373262803       17.1224981440
  H        14.9100623268        1.0662341623       15.6733900105
  H        16.7194778562        2.3112571836       14.2573819360
  H        11.4978702764        2.2747277924       15.6981843729
  H        11.3162236681        2.9349723933       17.8882339837
  H        12.1387399272        1.5320485750       19.8362904203
  H        13.3762451176       -0.5864083542       19.2681239276
  H        13.5464585804       -1.3085444798       16.8894958861
  C        11.4226345920       -0.6549349490       12.6406762245
  C        10.4269217740       -1.4697216288       11.8866061595
  C         9.3420282272       -2.0430591053       12.6093705261
  C         9.2819813684       -1.9815643506       14.0772210114
  C        10.4212071971       -1.4841131292       14.7445551686
  C        13.5270631975        0.6357508095       12.4996863497
  C        12.3878455216        0.0989520590       11.9134532029
  C        12.1920813528        0.5081268799       10.5458361320
  C        11.3456946931        1.5981594649       10.3010218445
  C        11.2521896898        2.1472164354        8.9716040708
  C        12.1006852430        1.6600192627        7.9661483712
  C        12.9709446336        0.6264937958        8.2341351469
  C        12.9444412303       -0.0622980273        9.4466592475
  H        13.5388539494       -0.9384339891        9.7168359197
  H        13.6302077265        0.1573343295        7.5691464153
  H        11.9741857375        2.1498508433        6.9802474804
  H        10.5990075123        2.9308973820        8.7369922864
  H        10.8147895529        2.0300579904       11.2063322494
  C        14.6052128084        1.2293523794       11.7957822899
  C        15.7095548205        1.7943803126       12.4040770031
  H        16.4235110245        2.4027000838       11.8063426723
  H        14.5145822991        1.2737681073       10.7123423345
  C        10.4517094401       -1.8039758035       16.1658138954
  C        11.1403375641       -2.9101685860       16.7710764809
  C        10.9627094884       -3.1827800851       18.1310222906
  C        10.2492494054       -2.2941981247       18.9450129948
  C         9.5807893216       -1.1701686088       18.3636972168
  C         9.7575884313       -0.9365763200       17.0037357336
  H         9.1981338012       -0.1359391669       16.5298438605
  H         8.9752047920       -0.5143529891       19.0236286112
  H        10.2600029351       -2.4285412966       20.0156420050
  H        11.5407400684       -3.9863559295       18.5586323867
  H        11.7489605465       -3.5721074665       16.0947412843
  C         8.1491650885       -2.4910223283       14.7940291972
  C         7.1539374166       -3.2021148670       14.1296633843
  C         7.1753979049       -3.1949675015       12.6837277646
  C         8.1760400290       -2.6485901088       11.9135915414
  H         8.2017151166       -2.6573699827       10.8520035904
  H         6.3275840364       -3.6613089874       12.2239756544
  H         6.2968063793       -3.5634116625       14.7202708006
  H         8.0210610291       -2.1216933150       15.8409819912
  C        10.3937106069       -1.6401831258       10.3863640571
  C        11.1927924867       -2.6597644488        9.7344767128
  C        11.0669916661       -3.0517969573        8.3867692294
  C        10.0542913026       -2.4279925365        7.6327321731
  C         9.2400209599       -1.4780902335        8.2419264940
  C         9.5037987343       -0.9879297371        9.5587305687
  H         8.7678528851       -0.2966291934       10.0040253629
  H         8.4673325157       -1.0426738002        7.6622445914
  H         9.7936315147       -2.6580692750        6.6112918472
  H        11.7586758696       -3.7845549897        8.0302965419
  H        11.8929681897       -3.1393479859       10.4346036522
