140

  C         4.2057519287       -0.8922796081       14.0253629414
  C         5.2441374275       -0.2210661747       14.7155621944
  C         6.3426436875        0.2992219828       13.9880254343
  C         7.3598317361        1.0640996220       14.5856965340
  C         8.3990582476        1.6505317820       13.9166102487
  C         5.1976023461        0.1908134286       16.0858200116
  C         4.3300105546        1.2657508625       16.3778517071
  C         4.3399569611        1.8322196460       17.6566580494
  C         5.2608973989        1.3438504189       18.5947914747
  C         6.1170804258        0.3255403678       18.2645147183
  C         6.0968862160       -0.2591267750       16.9905999324
  H         7.2818652417        1.1523882492       15.6594060630
  H         9.2138156901        2.1012562827       14.4198410859
  H         3.5177130860        1.5112112804       15.6406159270
  H         3.7038875062        2.7120675849       17.7867001982
  H         5.4162366167        1.8572097191       19.5359246519
  H         6.8293417299        0.0431572010       18.9572698127
  H         6.8942296776       -0.9231441714       16.7814856767
  C         4.2700226725       -0.9926511528       12.5031106803
  C         3.1782866751       -1.6568000950       11.7954604236
  C         2.0115320530       -2.0714934752       12.4623891141
  C         2.0847523268       -2.1920902818       13.8870324146
  C         3.1499853965       -1.5483211069       14.6993496952
  C         6.3867533013        0.2127275748       12.5454663417
  C         5.2859991719       -0.3498646613       11.8378076310
  C         5.2995437053       -0.0742408377       10.3991457471
  C         4.6998226300        1.1190727281       10.0506173324
  C         4.7676122509        1.5164384162        8.7160231962
  C         5.3543993601        0.8639559139        7.6801669323
  C         6.0739691240       -0.2999067130        8.0688236557
  C         5.9672120762       -0.7851496481        9.3643868055
  H         6.4061160382       -1.7637955248        9.5109146978
  H         6.6648958640       -0.8239327995        7.3331471176
  H         5.2424332383        1.3335368980        6.6563428810
  H         4.1792453114        2.4011009825        8.3873672201
  H         4.1817322606        1.7598497781       10.7976751692
  C         7.3808775332        0.9100410298       11.7917434865
  C         8.3478573614        1.6614387672       12.4872751773
  H         9.0903016712        2.1883245779       11.9343727167
  H         7.2580569580        1.0572848354       10.7085199315
  C         3.2021063572       -1.8880647098       16.1577050119
  C         4.0511432404       -2.9192262868       16.6772872370
  C         4.0166992981       -3.2778980288       18.0695670284
  C         3.1853796873       -2.5449501422       18.9417331135
  C         2.4070730384       -1.5212516012       18.4301440303
  C         2.3815167472       -1.2457601443       17.0553871878
  H         1.6410647466       -0.4450390411       16.7049016486
  H         1.8520752034       -0.8010853888       19.0420734879
  H         3.2915584925       -2.6794673067       20.0433327623
  H         4.7634950530       -3.9447918302       18.4371945834
  H         4.8135164024       -3.3686729912       16.0228244613
  C         1.0264637575       -2.8459857431       14.6077847114
  C        -0.1407649975       -3.1968312076       13.9387685341
  C        -0.2261379703       -3.0325118158       12.5450297161
  C         0.8356166008       -2.5951862610       11.8131030286
  H         0.7707749510       -2.4248093684       10.7290448211
  H        -1.2091986076       -3.1469898951       12.1063529550
  H        -0.9648979905       -3.6184004779       14.5691495376
  H         1.1894434130       -2.9691370636       15.7042510231
  C         3.2888111903       -2.0761232167       10.3467788972
  C         4.1439813645       -3.1284585027        9.8078782476
  C         4.0979567331       -3.4689642733        8.4456137774
  C         3.1603634153       -2.8799786666        7.5616398864
  C         2.2761988396       -1.9459092370        8.0744524406
  C         2.4695049724       -1.4613063429        9.3881204241
  H         1.8987516750       -0.6312663528        9.7836077200
  H         1.5104736052       -1.5013927535        7.4745387253
  H         3.1961521439       -3.0876659977        6.4786175269
  H         4.7596777706       -4.1228169339        7.9536023279
  H         4.9952640379       -3.3654988564       10.4094859149
  C        11.2702896467       -0.4286621790       14.0176593057
  C        12.2768355333        0.3477258263       14.6520633674
  C        13.3571648184        0.9131882359       13.9348680871
  C        14.4854583998        1.5767891668       14.5381112102
  C        15.5342536027        2.1479166217       13.8833397680
  C        12.2422905460        0.6747528297       16.1181986075
  C        11.3366434861        1.5312880403       16.6778102300
  C        11.5555128158        2.0365830618       17.9639036801
  C        12.5824414745        1.5891596559       18.7148410292
  C        13.5081638576        0.5788698019       18.1883404805
  C        13.2724192420        0.1331712961       16.8754675242
  H        14.5222660947        1.4487286103       15.6543429222
  H        16.3805450546        2.5553726672       14.3807063695
  H        10.4566847200        1.8786652781       16.1276629603
  H        10.8799690829        2.8430263567       18.3303575153
  H        12.7620052334        1.9933538063       19.7442181626
  H        14.1891846185        0.0131451155       18.8185381562
  H        13.8735536992       -0.6057364655       16.3585069520
  C        11.3294693421       -0.5885241371       12.5237411898
  C        10.2979506882       -1.3812164299       11.9401220670
  C         9.2640239762       -1.9979055283       12.6766011575
  C         9.2305165718       -1.8944890202       14.1409413179
  C        10.3050323146       -1.1786599947       14.7717169826
  C        13.3904402025        0.8485366492       12.4550359566
  C        12.3142001860        0.1761437901       11.7450712656
  C        12.3127636355        0.3506858511       10.2761510649
  C        11.4903409504        1.3706222686        9.7644870092
  C        11.4908034713        1.7520989342        8.4056225794
  C        12.4197500788        1.2310833780        7.5537145841
  C        13.2410075625        0.1839175474        8.0102361062
  C        13.2372116638       -0.2428904585        9.3420853799
  H        13.8475827270       -1.1205758677        9.6501455620
  H        13.9107758813       -0.3101865150        7.2799370255
  H        12.4602011624        1.3209114251        6.4771983631
  H        10.6967393780        2.4653801920        8.1186912514
  H        10.8318525045        1.8667011894       10.4315195282
  C        14.4467269303        1.5003160555       11.8230639876
  C        15.4660202292        2.1891085788       12.4453951806
  H        16.2052747038        2.6456652753       11.8175868932
  H        14.3802636252        1.5685824718       10.7085133988
  C        10.3835769589       -1.4286210936       16.2333327487
  C        11.2969268440       -2.4331774154       16.5935861390
  C        11.3060546231       -2.9556734507       17.8559227465
  C        10.4009310164       -2.5543348079       18.8022619336
  C         9.4300180318       -1.6025336078       18.4809769752
  C         9.5339597689       -0.9869084726       17.2407400693
  H         8.8636945702       -0.1521368035       17.0695461427
  H         8.6830419905       -1.2675180562       19.2304708174
  H        10.4843800261       -2.9908283156       19.8010289270
  H        12.1615738321       -3.5444497475       18.1484088843
  H        12.0188019862       -2.7444748430       15.8150264149
  C         8.1757612078       -2.5909205456       14.8269613917
  C         7.1362264525       -3.2850515912       14.2560344709
  C         7.1328210653       -3.3138048040       12.8159191549
  C         8.1044473457       -2.6969713062       12.0844419220
  H         8.1040665819       -2.8203917745       10.9955586715
  H         6.3652789361       -3.9279372393       12.3267961486
  H         6.4747095536       -3.7833331992       14.9763307171
  H         8.2628714195       -2.6637213641       15.9347657625
  C        10.3565986039       -1.7979170205       10.5165983061
  C        11.2807058459       -2.8455857579       10.1721665815
  C        11.3410337883       -3.3140795695        8.8566709040
  C        10.5798218092       -2.7093623275        7.8549402149
  C         9.6412006879       -1.7960012212        8.2211455009
  C         9.5225722963       -1.3722967391        9.5267824006
  H         8.7872811876       -0.5724393214        9.7105015074
  H         9.0500337114       -1.3374394491        7.4791497656
  H        10.5006728377       -3.1156271814        6.8523699388
  H        11.9342338568       -4.2412645415        8.5706146074
  H        11.9130532596       -3.2170720909       10.9385291582
