140

  C        11.4934750992        7.1714997090        2.2033627403
  C        10.4945757268        7.9547268544        2.8480506970
  C         9.4840924153        8.6007963630        2.1046845711
  C         8.5158828883        9.4730937598        2.7669863027
  C         7.5428363697       10.1509535816        2.0634973786
  C        10.5775112991        8.3035772212        4.3907729252
  C        11.2765985288        9.5088008513        4.7045959082
  C        11.2145468099       10.0876607060        5.9858132382
  C        10.4470665861        9.4041298429        6.9760901301
  C         9.7484128710        8.2064458053        6.6412398974
  C         9.7763164077        7.7012878665        5.3775394179
  H         8.7082035928        9.5767106116        3.8220627495
  H         6.8959976064       10.8212186909        2.5184471402
  H        11.7062962117       10.1430530840        3.9241320742
  H        11.7305005512       10.9799724390        6.3155821981
  H        10.2519512753        9.8069275399        7.9133580897
  H         9.1532502786        7.7249301148        7.4032909203
  H         9.3736808594        6.7585428878        5.1679252318
  C        11.6177638652        7.2023870358        0.7013173126
  C        12.6910844088        6.4651354434        0.0284355007
  C        13.6474666557        5.8240813999        0.8163486499
  C        13.5637229482        5.8452091816        2.2723482170
  C        12.4475137620        6.3656828375        2.9342582886
  C         9.5699656251        8.6366701269        0.6041921889
  C        10.6541226757        7.9476231695       -0.0704492634
  C        10.7616640407        8.1074891119       -1.5611986577
  C        11.5294965102        9.2177787223       -2.0558597213
  C        11.6505661980        9.5214514996       -3.4066820170
  C        10.9319911682        8.7418070090       -4.2956831644
  C        10.0995714479        7.7442397543       -3.8636397227
  C        10.0193328776        7.4051743242       -2.5191793352
  H         9.1995751836        6.7635079280       -2.1174873175
  H         9.4286548986        7.2578896071       -4.5551093643
  H        10.8991792359        9.0045088561       -5.3332014913
  H        12.2417069480       10.3314072485       -3.7780468095
  H        12.1414949912        9.6968453749       -1.2845485602
  C         8.5310862711        9.4350540635       -0.0418036356
  C         7.5289917353       10.0706845540        0.6435333652
  H         6.7776230108       10.5922773098        0.1212318097
  H         8.4702398074        9.4666749054       -1.1093618775
  C        12.3601167213        6.1150119280        4.4553276031
  C        11.5185435069        5.0647048129        4.8251648605
  C        11.5034038989        4.5931101339        6.1475442524
  C        12.4694994378        5.0872658635        7.0329028004
  C        13.3365633967        6.1300730888        6.6141013976
  C        13.2595364977        6.7576951530        5.3698031975
  H        13.8268613882        7.6349192826        5.0491096204
  H        14.0894151611        6.5466395024        7.2281357251
  H        12.6070506555        4.6908012341        8.0489743319
  H        10.8889471527        3.7128283441        6.4058961861
  H        10.8161155603        4.7327986442        4.0991043419
  C        14.6118403072        5.1973972698        2.9870894143
  C        15.7950879018        4.7176872592        2.3897881878
  C        15.7864481819        4.6441003199        0.9784057778
  C        14.7236608929        5.0834047882        0.2135781435
  H        14.8519889368        5.0182758147       -0.8512058543
  H        16.5894372769        4.1957704435        0.4475163367
  H        16.5804838248        4.4330425377        3.0467046329
  H        14.7020361387        5.3747232371        4.0580502897
  C        12.6481029789        6.1469584150       -1.4248970379
  C        11.8968895449        5.0259676716       -1.8641994107
  C        12.0670582484        4.4419549450       -3.1756867790
  C        12.9856660294        4.9876015022       -4.0589738626
  C        13.7574398116        6.0396222902       -3.6161846232
  C        13.5805295226        6.6655945416       -2.4007960334
  H        14.0331305006        7.6818431851       -2.1641822678
  H        14.5276902819        6.5653289507       -4.2580912857
  H        13.2246014666        4.4769785782       -4.9825521121
  H        11.4382272254        3.5878618788       -3.3660609381
  H        11.2310436245        4.5444375767       -1.0812984170
  C        18.9351493501        7.0587771336        2.3819149246
  C        17.8997810507        7.7706625220        3.0075616441
  C        16.7130181113        8.1586475054        2.3511884964
  C        15.5789716566        8.7074594417        3.0135377987
  C        14.5739694251        9.2717777295        2.2463310012
  C        18.0617595116        8.2010104312        4.4367886446
  C        19.1033482041        9.1108770929        4.6803049333
  C        19.4224878857        9.5400830817        5.9584973133
  C        18.6391362853        9.0609840188        7.0517043243
  C        17.5642877981        8.1637406632        6.7744139083
  C        17.3837815662        7.7081625677        5.4593517681
  H        15.5888889018        8.6758048469        4.0981330182
  H        13.7291287531        9.7470849762        2.8242179176
  H        19.6794754571        9.4276594442        3.8403613782
  H        20.2120054144       10.2591664665        6.1749192424
  H        18.8484620435        9.4716777730        8.0574100483
  H        16.8646391992        7.8809731337        7.5922364457
  H        16.6771954835        6.8916870846        5.2873773854
  C        18.8876103563        6.9939657068        0.9273625576
  C        19.9024837181        6.2760879341        0.2569820923
  C        21.1000696571        5.8860148715        0.9346204076
  C        21.1117790547        5.9928457397        2.3557336343
  C        19.9637186265        6.4716349453        3.0418790219
  C        16.6618010104        8.1332474201        0.9025597942
  C        17.8067197580        7.6491390686        0.2073701417
  C        17.9481240180        8.0293949138       -1.2212021065
  C        18.5086415413        9.2558327899       -1.5064108834
  C        18.4402186879        9.8284227977       -2.7594011704
  C        17.7689637970        9.1499045542       -3.7928641040
  C        17.2413657480        7.8469418385       -3.5033099597
  C        17.2711220310        7.2965733998       -2.2264301779
  H        16.7175897837        6.3772742288       -1.9589802630
  H        16.6323983291        7.3482962320       -4.2314443921
  H        17.6247478564        9.6141478669       -4.7762351691
  H        18.6668373673       10.8915219942       -2.8053236247
  H        19.1232339868        9.7940312827       -0.7585114851
  C        15.6236428775        8.8911410128        0.1793441262
  C        14.5539079602        9.3874518777        0.8330417176
  H        13.7245320327        9.8314697768        0.3597777036
  H        15.6712090173        8.8529688121       -0.8997409928
  C        19.7677060988        6.0553183819        4.4237626106
  C        18.7493759358        5.0623700954        4.5765093071
  C        18.4885716673        4.3631054965        5.7803161427
  C        19.1655803682        4.7742632556        6.9384530418
  C        20.0119688020        5.8173622440        6.8744838329
  C        20.3306553768        6.4453164548        5.6653456395
  H        20.9890040381        7.3137908942        5.6654564066
  H        20.6453389638        6.1595248820        7.7105158995
  H        19.0185051615        4.2880569632        7.8951765401
  H        17.7474266922        3.5820356564        5.7240313910
  H        18.1684293833        4.8990845920        3.6427779647
  C        22.3487290284        5.5558690013        3.0541065252
  C        23.4077848734        4.9858993836        2.3397403047
  C        23.3805189711        4.9116614851        0.9540209728
  C        22.2020082201        5.2546462391        0.2801414713
  H        22.1635332772        5.2758002510       -0.7880812978
  H        24.1827554244        4.4272672676        0.3840633496
  H        24.2454773009        4.5341358482        2.8598901884
  H        22.3094567447        5.7528858232        4.1472968841
  C        19.8603555752        5.9662902146       -1.2824265231
  C        19.0936996317        4.9133367645       -1.7840708590
  C        19.1826765362        4.6119710898       -3.1945190035
  C        20.0683786826        5.3523290580       -4.0059210020
  C        20.8622237656        6.4175414465       -3.4586989003
  C        20.6575075211        6.7754983083       -2.1648522814
  H        21.2397452469        7.5627307990       -1.6899631875
  H        21.5027911261        7.0230237208       -4.0673998941
  H        20.1021541255        5.1628568043       -5.0909576880
  H        18.5973589364        3.7670329859       -3.5321031382
  H        18.4582662331        4.3214060264       -1.1376811170
