140

  C        12.3741640042        6.9180743165        2.9573018113
  C        11.4231857949        7.7078930800        3.6848944130
  C        10.3360147895        8.3135438551        2.9983833724
  C         9.2654920708        9.0075167857        3.6390267826
  C         8.3715415277        9.7188604046        2.9506544488
  C        11.5741633093        8.0570226893        5.0352627140
  C        12.2591878134        9.2292156829        5.3305189108
  C        12.3162768338        9.8216937968        6.6350199266
  C        11.5516452800        9.2920734413        7.6644715394
  C        10.8353277201        8.0723440337        7.4139814233
  C        10.7988212669        7.5246828136        6.1104992599
  H         9.2948915464        9.0457476161        4.7171870533
  H         7.6486094608       10.3510191092        3.4671399884
  H        12.8598654169        9.6959303799        4.5659529189
  H        12.8225931309       10.7412297317        6.7608344997
  H        11.5668266642        9.6864505959        8.7276541598
  H        10.1997921223        7.5848649332        8.1812625276
  H        10.1778774244        6.6894704340        5.8669077200
  C        12.3071678869        6.9245844961        1.4426899308
  C        13.3390494143        6.2344745605        0.7488364283
  C        14.4231012130        5.6027206177        1.4175927497
  C        14.3784932276        5.4479646691        2.8748669427
  C        13.3553541315        6.1328303760        3.5935254461
  C        10.3153189945        8.3894562289        1.5576806876
  C        11.2745932259        7.6630926844        0.8267123541
  C        11.4261108782        8.1040520327       -0.6257891331
  C        12.1444777351        9.2390114400       -1.0028329748
  C        12.1375951630        9.6986366965       -2.3020039097
  C        11.3292976752        8.9859496345       -3.2220316739
  C        10.4846255121        7.9770395830       -2.8582821051
  C        10.5530296460        7.4415009719       -1.5473653378
  H         9.9442656529        6.5649984057       -1.2744576928
  H         9.9499019506        7.5214102830       -3.7038395555
  H        11.4287265720        9.3495464374       -4.2115619136
  H        12.8363874234       10.4320390517       -2.7363383714
  H        12.7849630239        9.7236492452       -0.2586231518
  C         9.2908693122        9.0987314108        0.7693491123
  C         8.3607475517        9.7563864815        1.5302066432
  H         7.5680327963       10.3408773531        1.0596201384
  H         9.3424570312        9.1409896141       -0.2910662901
  C        13.3707904247        5.8778110883        5.0194011492
  C        12.6070785379        4.7905148044        5.5646130368
  C        12.7672737421        4.4219654457        6.8663395184
  C        13.6374546952        5.1671848486        7.7091431627
  C        14.3639044972        6.2322407362        7.1777059366
  C        14.2937726065        6.5666176539        5.8342996423
  H        14.8913403727        7.4100019325        5.4174327818
  H        14.9557523607        6.8091594118        7.8820176887
  H        13.7680033265        5.0365328572        8.7573935960
  H        12.1758667727        3.5523454470        7.1656145344
  H        11.9143839817        4.2726444104        4.9612936504
  C        15.4828613219        4.8460218564        3.5877093639
  C        16.5594670705        4.4013505890        2.8463947165
  C        16.5713865026        4.4014078461        1.4125719454
  C        15.5522207235        4.8746706941        0.7221142104
  H        15.4372536942        4.8444262965       -0.3534623488
  H        17.3957490510        3.8907243953        0.9197272902
  H        17.4214752089        3.9912849491        3.4052347447
  H        15.3811261077        4.7069782447        4.6927543347
  C        13.3219141369        5.9691696608       -0.7192899175
  C        12.4606779804        4.9707470720       -1.2447351097
  C        12.6169960339        4.6308210047       -2.6266405780
  C        13.7124330639        5.1234636968       -3.3786274185
  C        14.5321035808        6.1272458214       -2.8612580662
  C        14.3016462592        6.5670675202       -1.5477868040
  H        14.8848482622        7.3119211936       -1.1801090464
  H        15.4494495141        6.4567590663       -3.3483449887
  H        13.8975623834        4.8403121386       -4.4309348047
  H        11.9316804338        3.9705216829       -3.1123641409
  H        11.6498400849        4.5484071625       -0.7072286672
  C        19.6508764254        6.9894317297        2.7440716371
  C        18.5175375130        7.6743019975        3.3593955247
  C        17.3950390694        8.0259306015        2.6208722230
  C        16.1876101112        8.5837528469        3.2614684049
  C        15.2454202894        9.2441517092        2.5214986744
  C        18.5133512930        7.8565857906        4.8008656708
  C        19.3255756457        8.8266674939        5.4589991782
  C        19.3671536823        8.9587107579        6.8614744681
  C        18.5198012141        8.1177803598        7.6197756101
  C        17.6755412184        7.1653911723        7.0030931808
  C        17.7382587313        7.0376287408        5.6046150225
  H        16.1239099820        8.4747540244        4.3243853706
  H        14.2995762325        9.6300498274        3.0513828414
  H        19.8834559110        9.5277609063        4.8400339858
  H        20.0146718763        9.7098524256        7.3139179391
  H        18.3774105933        8.2684233246        8.7126489584
  H        17.0336391495        6.5037483717        7.5542440747
  H        17.1180312589        6.2528559178        5.1471679108
  C        19.7170520426        7.1549737246        1.2331285037
  C        20.7973614381        6.4936083717        0.6114803178
  C        21.7219635564        5.7043101125        1.3362999600
  C        21.6911065863        5.5839505982        2.8294571677
  C        20.5847564326        6.2650164999        3.4537812750
  C        17.5318564103        8.2264191570        1.2030370092
  C        18.7125858919        7.8180409860        0.4885146472
  C        18.7879718555        8.2988474398       -0.8992179275
  C        19.4778344400        9.4612616022       -1.1245055079
  C        19.4869002855       10.0133231988       -2.4006154856
  C        18.7686509497        9.3877517536       -3.4590532122
  C        17.9606246137        8.3172972250       -3.1208492630
  C        18.0272993652        7.6977091003       -1.9044354292
  H        17.4601952349        6.7857163548       -1.8020958607
  H        17.3559839418        7.8046299193       -3.8917065508
  H        18.6587679656        9.8380537946       -4.4210018141
  H        19.9518514953       10.9461698482       -2.5487720181
  H        19.9667466858       10.0104913088       -0.3232733222
  C        16.5396339574        9.1274949226        0.5520765200
  C        15.4284554598        9.6160069254        1.1892984157
  H        14.6821512905       10.3395674278        0.7505639956
  H        16.6416447256        9.3102442212       -0.5125410363
  C        20.5413738126        5.9087218815        4.9082390399
  C        19.9395678784        4.6267351562        5.2625762683
  C        20.0729852247        4.2360403662        6.6192794337
  C        20.8025142787        5.0152541372        7.5762316813
  C        21.4613796018        6.1195271507        7.1229974896
  C        21.3116186064        6.5768780368        5.7891047463
  H        21.8408299560        7.4743829213        5.4894705103
  H        22.0317285398        6.7506849421        7.7726341974
  H        20.9406813659        4.7489375118        8.6064692239
  H        19.6813955227        3.2609324043        6.8529177435
  H        19.4891194378        3.9889032350        4.5222961403
  C        22.7463855583        4.8423834842        3.4439260808
  C        23.8589415802        4.4974082025        2.7204437085
  C        23.9157013923        4.5899499039        1.2902521528
  C        22.8438628294        5.1273963960        0.6273785206
  H        23.0379020802        5.3637922152       -0.4419376544
  H        24.8540958239        4.4978112643        0.7490910490
  H        24.7183061686        4.0985104007        3.1916557523
  H        22.8351569611        4.7162205110        4.5262558782
  C        20.7381187821        6.2733524586       -0.9111196470
  C        20.1793573587        5.0181499014       -1.3511276541
  C        20.0688059575        4.6962083546       -2.7053912664
  C        20.7539741245        5.5375125102       -3.6228679769
  C        21.5462552138        6.6338356793       -3.2164404187
  C        21.4772071564        6.9688642494       -1.8594614309
  H        21.9796902812        7.8542254979       -1.5810896913
  H        22.1739244391        7.1038670260       -3.9337503026
  H        20.7700021912        5.1894694935       -4.6737734760
  H        19.6968251290        3.7648814099       -3.1396747601
  H        19.6176004998        4.3686607317       -0.6538651705
