140

  C         3.8949489392       -0.0932022754       14.3080282291
  C         4.9430383772        0.5641345508       14.9609249274
  C         6.0142197972        1.0251227152       14.1782666067
  C         7.0427949970        1.7446720142       14.8701111982
  C         8.1136536280        2.2503818608       14.2074325252
  C         4.8129162364        0.8966342843       16.3865602700
  C         4.0421368631        2.0137514437       16.7004867811
  C         3.9563514204        2.4953610489       17.9406750226
  C         4.6564916337        1.8723472680       19.0009593477
  C         5.4614579177        0.7576335840       18.7272726349
  C         5.5898254457        0.3364288997       17.3811941956
  H         6.8540841646        2.0087003278       15.9212027913
  H         8.8153108810        2.8191747521       14.8068146567
  H         3.4967996672        2.5905635189       15.9367898499
  H         3.1607853744        3.1960300726       18.2299947702
  H         4.6331022144        2.3373539386       19.9671427995
  H         6.0109902631        0.2305956481       19.4661356184
  H         6.1877953874       -0.5985157891       17.3043831336
  C         3.8601321218       -0.0560640587       12.7652079932
  C         2.7606565932       -0.5368664805       12.0651471807
  C         1.6043537226       -1.0061491028       12.7976021354
  C         1.6825863584       -1.2515898555       14.2593583246
  C         2.8046528183       -0.7676946596       15.0035686568
  C         6.0809433894        0.9153020622       12.7586888344
  C         4.9772935611        0.4465995041       12.1229260115
  C         4.8768826508        0.8498623628       10.6465703920
  C         4.1940958173        1.9798014107       10.2544565172
  C         4.1582062933        2.4484021415        8.9235961480
  C         4.7478960860        1.6460352696        7.9211003904
  C         5.4259215551        0.4617139320        8.3423454327
  C         5.5447382016        0.1332407053        9.7080027372
  H         6.0199864534       -0.7997622519       10.1042189581
  H         6.0087624299       -0.1603026759        7.6121360687
  H         4.6869037314        1.8281193224        6.8307366844
  H         3.4874986303        3.2389634866        8.5606256264
  H         3.7452983058        2.6827710741       10.9853423950
  C         7.2726631799        1.4247487174       12.1365438120
  C         8.2977028915        2.0672496728       12.7842024157
  H         9.1509042692        2.4154481771       12.2196828281
  H         7.3964169165        1.4696976176       11.0409259408
  C         2.9482299294       -1.2256368394       16.4750436213
  C         3.7306621601       -2.3415160774       16.8484013737
  C         3.6627457147       -2.7756224399       18.1965439677
  C         2.8158923319       -2.1861884962       19.0846631884
  C         2.0792861963       -1.0485614059       18.7180585336
  C         2.2533278157       -0.5803409644       17.4522446028
  H         1.8018662648        0.3403877072       17.0163364038
  H         1.4088202754       -0.5393432356       19.3696113905
  H         2.5809935525       -2.6824401286       20.0684355048
  H         4.2028946852       -3.7101380695       18.5038703046
  H         4.2993480797       -2.8925538284       16.0765724863
  C         0.6571947454       -2.0206946770       14.8530511318
  C        -0.2794546202       -2.6054338918       14.0402519254
  C        -0.4235912581       -2.3085967788       12.6857881290
  C         0.4968952887       -1.5487224059       12.0945594503
  H         0.3570247040       -1.2912878371       11.0664381161
  H        -1.3605991300       -2.6417570815       12.2198359132
  H        -1.0787025305       -3.2695689841       14.4673710038
  H         0.6486751277       -2.1718960912       15.8990856224
  C         2.7666874215       -0.9106672543       10.6182080708
  C         3.3275988096       -2.1288505001       10.2331493951
  C         3.2120684976       -2.5418240108        8.8862803814
  C         2.3647506267       -1.8139602621        8.0103912629
  C         1.6948506608       -0.7111041496        8.4508059193
  C         1.9450612190       -0.2296432782        9.6993626671
  H         1.3757876470        0.6063569210       10.1002959935
  H         0.9184987650       -0.1968012805        7.8467508336
  H         2.3336895696       -2.1370813466        6.9064318401
  H         3.6541146438       -3.4077460587        8.4031291412
  H         3.9207119235       -2.6938948881       10.9048199226
  C        11.2551817596       -0.4273286168       14.1163844481
  C        12.2331876583        0.2740108281       14.8767995570
  C        13.3080952282        0.9740049920       14.2240480528
  C        14.3100157765        1.6352667763       14.9702713884
  C        15.4032141054        2.1654530259       14.3940100215
  C        12.0858134799        0.6166790095       16.3096821255
  C        11.3983870534        1.8385409837       16.6314832471
  C        11.3447618625        2.3430537579       17.9407533265
  C        12.0931089572        1.8051578063       18.9848679890
  C        12.8138436493        0.6112460499       18.6699791235
  C        12.8027210066        0.0080524209       17.3663678665
  H        14.2896963884        1.6589506824       16.1000134952
  H        16.2363697008        2.5822274447       14.9863522747
  H        10.9431911949        2.3880879512       15.8012336460
  H        10.6509196420        3.1772406727       18.0650387048
  H        12.1767038596        2.3133173127       19.9706786580
  H        13.4372303807        0.2234813535       19.4974315497
  H        13.4571312514       -0.8110748447       17.0445501148
  C        11.3269609207       -0.3489211698       12.6632315307
  C        10.2247141192       -0.9882386031       11.9672419410
  C         9.0226768054       -1.3075965628       12.5798210873
  C         8.9914070851       -1.4637803630       14.0220967925
  C        10.1212160074       -1.1130413568       14.7723586822
  C        13.3909508778        1.0286091064       12.7495404788
  C        12.3558622752        0.4203249022       11.9557259855
  C        12.2562127409        0.9199443724       10.5239102798
  C        11.3267259230        1.8821725629       10.1005416135
  C        11.2253665174        2.2398108047        8.7238087445
  C        12.0850417487        1.6615030849        7.7944734385
  C        13.0190315004        0.6616698734        8.1892870851
  C        13.0361978061        0.2869288095        9.5563030530
  H        13.6263843734       -0.5720312733        9.8696337196
  H        13.7110955721        0.2301292034        7.4590024145
  H        12.0643731589        1.9391107420        6.7104060424
  H        10.5675720998        3.0338480164        8.4593394059
  H        10.7405238383        2.3756368033       10.8290988508
  C        14.4280932935        1.8647139099       12.1774754650
  C        15.4793596945        2.2809997123       12.9076310027
  H        16.3640043799        2.7002726454       12.4448397249
  H        14.5126498894        1.9375168519       11.1047845165
  C        10.1748605281       -1.3538367283       16.2644950321
  C        10.9858800554       -2.3419199653       16.8708222278
  C        10.8736145006       -2.5576477983       18.2760128614
  C        10.0322587042       -1.7354688661       19.0921306566
  C         9.1540109284       -0.8178039874       18.4822837560
  C         9.2571299585       -0.6292503227       17.0895016088
  H         8.6054683244        0.1171472128       16.6093591386
  H         8.5044743377       -0.1630509574       19.0953602908
  H         9.9437544265       -1.9144282087       20.2061500328
  H        11.4340932687       -3.3400559389       18.7158662151
  H        11.7557404578       -2.8671655934       16.2967967883
  C         7.8768186035       -2.0835744975       14.6727660486
  C         6.8452644132       -2.6000190049       13.9568521171
  C         6.7850668692       -2.3160131232       12.5505384794
  C         7.8585481395       -1.7988069656       11.8536017449
  H         7.7390419269       -1.6006460782       10.7590186531
  H         5.8300851734       -2.4769752297       12.0755966371
  H         5.9735248231       -3.1812971227       14.4114283348
  H         8.0105043633       -2.1826037693       15.7287435791
  C        10.3774448491       -1.4420334279       10.6051875113
  C        11.1444328045       -2.5403586282       10.3592435136
  C        11.1800197482       -3.1682852515        9.1186427046
  C        10.3741755326       -2.6996077642        8.1149923122
  C         9.6537594382       -1.5196459289        8.2914311802
  C         9.5984036635       -0.9188689318        9.5581510299
  H         9.0425029194        0.0080148848        9.7037500181
  H         9.2151027927       -1.0236849820        7.4187128795
  H        10.3192458347       -3.1239578721        7.0923602498
  H        11.7690387245       -4.0846312041        9.0637276708
  H        11.6550675400       -2.9845785267       11.1701359875
