140

  C        11.8432034627        5.8379184764        0.5248151231
  C        10.7959599474        6.5202511331        1.1838988514
  C         9.7441197107        6.9741613364        0.4836920893
  C         8.7865894717        7.7628388942        1.1325572014
  C         7.6604820343        8.2417940898        0.4816666896
  C        10.9646876841        7.0766255052        2.5583911986
  C        12.0190841219        8.0306226096        2.6881114336
  C        12.2774335831        8.6105626927        3.9304718243
  C        11.4230337920        8.3632787333        5.0479486804
  C        10.3851221834        7.3819415285        4.8746528953
  C        10.1152144136        6.7421950661        3.6538881779
  H         8.8629594505        7.8485676760        2.1745537845
  H         6.7805363858        8.5390346704        1.0837915137
  H        12.6806357419        8.2354083436        1.7946366914
  H        13.1166271526        9.1612869542        4.1514850212
  H        11.6049431741        8.8900806491        5.9713192612
  H         9.6169333998        7.2534590855        5.7405090456
  H         9.3730620695        5.9405447468        3.5561421231
  C        11.8474776656        5.7829347711       -0.9688883100
  C        12.9321781211        5.1226892665       -1.6523911490
  C        13.9975542201        4.5794289765       -0.8892053517
  C        13.9886145303        4.6414605046        0.5949611724
  C        12.8825557961        5.1256999955        1.2671251339
  C         9.6942193737        7.0340855863       -0.9712129375
  C        10.8285719812        6.5587001440       -1.6459929440
  C        10.8807702101        6.8437857175       -3.1123906488
  C        11.7626168748        7.8526777439       -3.5396939382
  C        11.7401738488        8.2674380800       -4.8462269606
  C        10.8483448435        7.7652414150       -5.7918051758
  C        10.0003987666        6.7352094795       -5.4050466257
  C        10.0114232190        6.2703581002       -4.1429080995
  H         9.3252033258        5.4816950813       -3.8041968806
  H         9.2337295456        6.4586424964       -6.1072244174
  H        10.8151059995        8.0937222244       -6.8065058372
  H        12.2256666088        9.2135648276       -5.1499881407
  H        12.3977305913        8.3178419214       -2.7499846782
  C         8.6131450540        7.6528707431       -1.6306881975
  C         7.5505874454        8.1431849609       -0.9162771673
  H         6.6362306604        8.4709788557       -1.3952977736
  H         8.4657904373        7.4698895114       -2.6492480561
  C        12.7394764983        4.8221138187        2.7497510261
  C        11.9363502300        3.7106867280        3.1107032768
  C        11.8722835420        3.2820199610        4.4217850554
  C        12.7106659975        3.8544228745        5.3373775519
  C        13.5940374169        4.9502349293        5.0333433549
  C        13.4861782479        5.4781122623        3.7301702975
  H        14.0536067801        6.3579670943        3.4610774888
  H        14.2280458346        5.3497934808        5.8222075748
  H        12.6802284331        3.4564160421        6.3481357709
  H        11.2954882707        2.4295518607        4.7757254786
  H        11.2643336812        3.3733450822        2.3095124628
  C        15.0639145977        3.9601490443        1.2251974510
  C        16.1252851579        3.3145536336        0.5885066140
  C        16.0868813145        3.2619793819       -0.8509046405
  C        15.0783056813        3.8773658628       -1.5248025481
  H        15.2004346927        3.8386614585       -2.6006426616
  H        16.9111183324        2.7221291513       -1.3304205340
  H        16.9089932239        2.6714177662        0.9914553949
  H        15.1574057823        3.8481937857        2.3229893726
  C        12.9923934700        4.8405727857       -3.1314809140
  C        12.0832912871        3.9048073040       -3.6663328084
  C        12.0899062712        3.5601448528       -5.0078114383
  C        13.1127830533        4.0098943092       -5.8464693662
  C        14.0487100906        4.9415386576       -5.3675533205
  C        13.9036492822        5.3865914163       -4.0143126069
  H        14.5766092331        6.2120591629       -3.7686612884
  H        14.7748970668        5.5132611834       -5.9513739138
  H        13.2668974838        3.5971039646       -6.8733260692
  H        11.3428270391        2.9431403184       -5.4105369557
  H        11.3517599466        3.4601856872       -2.9763356348
  C        18.9814162804        6.0235198361        0.4833476721
  C        17.8659499335        6.7488350248        1.1248606934
  C        16.8515535040        7.3288545229        0.3514786300
  C        15.7320168343        8.0222189277        0.9613871244
  C        14.7358813785        8.6770793875        0.2629849212
  C        17.8057934591        7.1500723868        2.5933556103
  C        18.7947501155        8.0000254234        3.0665250850
  C        18.7597511816        8.4832459152        4.3441911763
  C        17.8314882180        7.9904744352        5.2399697293
  C        16.8543909960        7.0533202259        4.8623792952
  C        16.7650521012        6.7463172395        3.4682332106
  H        15.7221790421        8.1159107675        2.0465398140
  H        14.0486670370        9.3653421809        0.7518543108
  H        19.5988450786        8.2595203675        2.3870606171
  H        19.5424072832        9.0909085122        4.7389578675
  H        17.8853968421        8.3578627277        6.2763705377
  H        16.2951028367        6.6398493007        5.6313131151
  H        16.0122705253        6.0345123485        3.1886426893
  C        19.0398818990        6.0481916380       -1.0123958537
  C        20.0884518376        5.3059579191       -1.6225236600
  C        21.1144203541        4.7128967256       -0.8907723310
  C        21.1395489834        4.8223978986        0.5379843105
  C        20.0642577349        5.3636521115        1.2807452519
  C        16.8913552658        7.2846316762       -1.0922676808
  C        17.9953143992        6.7203627214       -1.7446184667
  C        18.0213870172        6.9322709105       -3.1899587585
  C        18.6682562717        8.1045969546       -3.6527334564
  C        18.5337480664        8.4706061105       -4.9420718342
  C        17.7868121294        7.7244756213       -5.8223968631
  C        17.1261955714        6.5546161399       -5.3771201513
  C        17.2574881293        6.0968617620       -4.0514721276
  H        16.7347986706        5.2686125044       -3.6472858506
  H        16.4155599106        6.0263690221       -6.0139070959
  H        17.6969114657        8.0410852168       -6.8419118859
  H        18.7969764990        9.4810129682       -5.2886397076
  H        19.1515930427        8.7767832724       -2.8638362345
  C        15.7840759262        7.8363239050       -1.7980448463
  C        14.7721610536        8.5015946982       -1.1622180009
  H        13.9713002589        9.0055366393       -1.6802334532
  H        15.6722624030        7.6034050695       -2.8153076669
  C        20.0041617285        4.9686578559        2.7592777132
  C        19.1429495810        3.9665186767        3.3123337633
  C        19.1808405036        3.5961341647        4.7011568988
  C        20.2111531721        4.0710916159        5.5830578183
  C        21.0649036765        5.0261076370        5.0057703792
  C        20.8978284871        5.5316057483        3.7094690064
  H        21.6477457136        6.2795339368        3.3581165626
  H        21.7806703167        5.4316098751        5.7155270262
  H        20.3138809658        3.7975674222        6.6325917311
  H        18.5479254087        2.7585991312        5.0651548104
  H        18.2605300865        3.5585518343        2.7791401947
  C        22.3340427843        4.3560141081        1.1680104523
  C        23.3723838795        3.7209584920        0.5091059463
  C        23.2468885773        3.5323957732       -0.8841678407
  C        22.1690256163        4.0488746238       -1.5629297706
  H        22.1471716660        3.8409823459       -2.6393827740
  H        23.9573163245        2.9417870965       -1.3766337912
  H        24.1913301059        3.2764688319        1.0421697204
  H        22.5049533854        4.3819551630        2.2141929329
  C        19.9710625106        4.8737368086       -3.0864935745
  C        19.1306571791        3.7783551578       -3.4350344390
  C        19.1287546484        3.1897185372       -4.6833172960
  C        19.9713969885        3.7620220335       -5.6845146161
  C        20.8476721757        4.7661068116       -5.3318973175
  C        20.8561406616        5.3212946084       -4.0887816425
  H        21.4702155297        6.2714704476       -3.8749114759
  H        21.5946563830        5.1808713461       -6.0590161223
  H        19.9836711938        3.3524486933       -6.6694274323
  H        18.3709142634        2.3919740905       -4.8667912474
  H        18.5134136862        3.3452253578       -2.6529208004
