140

  C        10.4521339306        7.2714148620        1.0910933947
  C         9.4296585273        8.0315101254        1.7492472355
  C         8.2925954308        8.4902255453        0.9669403267
  C         7.1201029166        8.9586665743        1.6549539770
  C         6.2674855335        9.7519232693        0.9575675989
  C         9.4122528986        8.4003942358        3.1646165184
  C        10.2417761327        9.4938048511        3.6379239531
  C        10.3263117081        9.8416343221        4.9998990083
  C         9.3768492493        9.1178759890        5.8331297591
  C         8.4319142944        8.1865166407        5.4082888791
  C         8.4598866167        7.8731496750        4.0495782821
  H         6.8634831521        8.4955821130        2.5510983829
  H         5.4112570374       10.0460960879        1.5090292626
  H        11.0672858560        9.8057494605        2.9824508478
  H        10.9089856474       10.6372660932        5.3787837141
  H         9.3835028148        9.4522974612        6.8480037691
  H         7.7676465760        7.7017098372        6.0850723663
  H         7.8660323328        7.0347536983        3.6605556161
  C        10.5259282012        7.2648231027       -0.3968560612
  C        11.6625547539        6.6685914244       -1.1207814228
  C        12.6883588248        6.1185284659       -0.3318483836
  C        12.5552795678        6.0708960701        1.1507931327
  C        11.4316226112        6.6115706665        1.8387034145
  C         8.4248031201        8.5954338796       -0.5013545179
  C         9.4676676774        7.9263436263       -1.1449539173
  C         9.6310781105        8.1931228249       -2.6218719112
  C        10.4072961890        9.2932890218       -2.9694254471
  C        10.4606980636        9.8574119835       -4.2519170526
  C         9.5480274106        9.3560220026       -5.2596620123
  C         8.8499575887        8.1466871110       -4.9421815520
  C         8.7899928045        7.5619948260       -3.6649117894
  H         8.2030118373        6.6549710849       -3.4958404580
  H         8.2702992189        7.6851562234       -5.7119212245
  H         9.4502295524        9.8042079287       -6.2498814691
  H        10.9899190082       10.8254059107       -4.4896154697
  H        10.9283190014        9.7161720808       -2.1429024456
  C         7.5282072714        9.4405780519       -1.1775452271
  C         6.4973270495       10.0909752776       -0.4663255628
  H         5.7119989586       10.6779036990       -0.9796450368
  H         7.7194749079        9.7037189211       -2.2204030709
  C        11.3193557085        6.1831218294        3.2916468634
  C        10.4352867076        5.1642063197        3.8179908430
  C        10.4723608061        4.8988319790        5.1618607263
  C        11.3749774198        5.5603320354        6.0528988345
  C        12.2434432931        6.4808998850        5.5097602264
  C        12.2487432874        6.7638101366        4.1246485990
  H        12.9423810866        7.4995804860        3.6936961371
  H        12.9918552879        6.9664063799        6.1454925792
  H        11.4041853921        5.1879913736        7.0743236295
  H         9.7073047090        4.1790421251        5.4816901454
  H         9.7079473842        4.7760674956        3.0682295044
  C        13.5454502931        5.2355728344        1.8275930717
  C        14.5717231227        4.6409572484        1.1599434181
  C        14.7196671606        4.7598233495       -0.2877084646
  C        13.7643161584        5.3801101915       -1.0060644918
  H        13.7530111297        5.3491133259       -2.1335576465
  H        15.5141394368        4.1771233409       -0.7903322919
  H        15.2496809875        3.9418180552        1.6992502648
  H        13.3486412943        5.0705929142        2.8857335059
  C        11.5205935287        6.2910835217       -2.5407282709
  C        10.7781427428        5.1535132458       -2.9397826004
  C        10.8985611982        4.6389520592       -4.2095065510
  C        11.8197040576        5.1722329852       -5.1193033172
  C        12.6772722585        6.1570620047       -4.6772669739
  C        12.5153844105        6.7612335139       -3.3555951633
  H        13.1959501840        7.5062648756       -3.0741401168
  H        13.4667317918        6.5665016827       -5.2657859830
  H        11.9002834596        4.7290568837       -6.1424281907
  H        10.4329373138        3.6738259785       -4.4656947983
  H        10.1447187910        4.7083050065       -2.1743573509
  C        17.4847738106        7.1620373609        1.4383874262
  C        16.5424363806        7.9582590592        2.1814300855
  C        15.4546548309        8.5172193298        1.4343594157
  C        14.3967622881        9.2941564047        2.1371843529
  C        13.3569019660        9.8912411625        1.4175333211
  C        16.6759541978        8.4248196400        3.5308914698
  C        17.5560719076        9.4877558704        3.6927412904
  C        17.7043351621       10.0661469782        4.9326990923
  C        16.9594342140        9.5493439515        5.9803684136
  C        16.1600407625        8.4636113559        5.8717457471
  C        15.9954672911        7.8781081068        4.6620911454
  H        14.3531518543        9.3294079282        3.1944548331
  H        12.5350300053       10.4280783625        1.9573909979
  H        18.0886517515        9.8391445098        2.8142705105
  H        18.3541079843       10.9328472211        5.0775743542
  H        17.0970079258        9.9930631084        6.9583124511
  H        15.6235122853        8.1363204834        6.7233087945
  H        15.4525901722        6.9554555406        4.6146795936
  C        17.4677921734        7.0900078777       -0.0174874910
  C        18.4550706326        6.3234512700       -0.7374714763
  C        19.6478084619        5.8890253038       -0.0900045587
  C        19.6789820323        5.9109754459        1.3421063662
  C        18.5982656234        6.4558984189        2.0810860555
  C        15.4544984783        8.5370627503       -0.0021536827
  C        16.5247284093        7.9130610849       -0.7836625596
  C        16.5692719283        8.2641370485       -2.2944378791
  C        17.1651592833        9.4720450311       -2.6917711203
  C        17.0978794328        9.9468242305       -3.9630378451
  C        16.5700994443        9.1391364571       -4.9859519543
  C        16.0354666213        7.9073094357       -4.6115975765
  C        16.0923588912        7.4680422041       -3.2869835639
  H        15.5643770393        6.5408653594       -3.0249436003
  H        15.7116542440        7.1193667865       -5.2632251125
  H        16.5584358827        9.4629348241       -6.0642430441
  H        17.5674990261       10.8944868496       -4.2025951623
  H        17.7314943178        9.9537675747       -1.8991699238
  C        14.3467969684        9.1308958263       -0.7557578579
  C        13.3569034404        9.7578458459       -0.0817139008
  H        12.5347410957       10.1830804952       -0.6477837918
  H        14.4328986789        9.0109154308       -1.8285624886
  C        18.5866259286        6.2208595264        3.5938257172
  C        17.7112726341        5.2365522416        4.1450359973
  C        17.8204662805        4.8938476422        5.4809884385
  C        18.7048807348        5.6560906636        6.2485277987
  C        19.4503470438        6.7281534981        5.8014898880
  C        19.4275654038        6.9778606309        4.4505125755
  H        20.0709088872        7.7786727752        4.0923617957
  H        20.0913689977        7.2992777504        6.4635742221
  H        19.0213744587        5.3232865829        7.2905126411
  H        17.2117619569        4.0813102461        5.8136423017
  H        16.9900755102        4.7445018105        3.5055450978
  C        20.8266725283        5.3014013952        1.9822752176
  C        21.8835108968        4.8602848788        1.2599977299
  C        21.9160696540        4.9930471759       -0.1510970883
  C        20.7681207162        5.3545702008       -0.8299462643
  H        20.7900222577        5.3315793812       -1.9214683542
  H        22.8522408898        4.7076789329       -0.6431276486
  H        22.7302171418        4.3820728128        1.7061002704
  H        20.8172246354        5.1213426736        3.0755055333
  C        18.4004060466        5.9640931186       -2.1636738929
  C        17.6398784498        4.8547733136       -2.5084279437
  C        17.6448190393        4.4425960030       -3.8549344783
  C        18.3698688232        5.1619101105       -4.8289674833
  C        19.1396177104        6.2478431768       -4.4613430852
  C        19.1339630590        6.7132641381       -3.1050455740
  H        19.6332690241        7.5717361274       -2.7201031049
  H        19.7305875778        6.7723888801       -5.2010630069
  H        18.4270628943        4.8870538454       -5.8687834624
  H        17.0807194728        3.5043272179       -4.1233175989
  H        17.0727477860        4.3265283125       -1.8076787796
