140

  C        11.1646026556        6.9898694401        0.6823171881
  C        10.1797406855        7.6327982973        1.4577207985
  C         9.0510593904        8.2280635258        0.7587278800
  C         7.8947676767        8.8541667890        1.3873513774
  C         6.8080408918        9.3765827120        0.6896777883
  C        10.3456710868        8.0575297106        2.8818788797
  C        11.2054274428        9.1049865589        3.2586956481
  C        11.3745535661        9.5083426175        4.5356331665
  C        10.4570381330        8.9542921856        5.4869023425
  C         9.6944871016        7.7813226770        5.2270576111
  C         9.6287733306        7.4004908231        3.8978104027
  H         7.8890355321        8.8403005681        2.5570815887
  H         6.0043069317        9.9233175810        1.1910724853
  H        11.7600530511        9.5329347915        2.3767690651
  H        12.1055620260       10.3622606568        4.8047120198
  H        10.4608138557        9.3644709113        6.5272264480
  H         9.2215816747        7.1946477840        6.0023743591
  H         8.9854856014        6.5749021129        3.5176863891
  C        11.0755210865        6.8943990603       -0.8041633465
  C        12.0650932480        6.0999747207       -1.5647522912
  C        13.0960188737        5.4596095044       -0.8846711240
  C        13.2013178310        5.5537086528        0.5570566445
  C        12.2076244187        6.2246348929        1.2519573025
  C         8.9934423477        8.2170813186       -0.6685527852
  C        10.0523166216        7.6424029780       -1.4444464893
  C        10.1877632207        7.9634045131       -2.9312471888
  C        11.0916093419        8.9654542317       -3.2951456381
  C        11.1181620590        9.4593675507       -4.6264368933
  C        10.3074140172        8.8970876162       -5.5861835530
  C         9.3128613210        7.9766588184       -5.2203438697
  C         9.2646086886        7.4986441117       -3.9028360988
  H         8.5256827512        6.7897773437       -3.5817814905
  H         8.6387906502        7.7542891946       -6.0431552632
  H        10.3425817425        9.3996388698       -6.5917536096
  H        11.7618228718       10.3140566054       -4.7588355997
  H        11.7401191613        9.4180598535       -2.5362377178
  C         7.9138406057        8.7853032790       -1.3844162684
  C         6.8282236586        9.3973876170       -0.7270921322
  H         5.9614254627        9.8800536823       -1.2736583438
  H         7.8471644132        8.6769208058       -2.4916457586
  C        12.1491445578        5.8291010434        2.7001443309
  C        11.3471540414        4.7706104300        3.1325476464
  C        11.3979872368        4.3476554321        4.4168257767
  C        12.2094192806        4.9840524643        5.3567093761
  C        13.0086324309        6.0668461840        4.9727483961
  C        13.0765955686        6.4647940924        3.6001579147
  H        13.6797184997        7.2357616906        3.1573685104
  H        13.6528351736        6.5533069727        5.7028495890
  H        12.2394654515        4.6602817129        6.3927935285
  H        10.6935368895        3.5427668238        4.6476477769
  H        10.5735199936        4.3851185754        2.4117274171
  C        14.1676692989        4.8019545113        1.1856408462
  C        15.1597868515        4.1123497368        0.5391144307
  C        15.1860001202        4.1238591521       -0.8379275550
  C        14.1724330726        4.7852233370       -1.5976746285
  H        14.1334537547        4.8073835877       -2.6398656956
  H        16.0862833651        3.7397615552       -1.3397766882
  H        15.8889231190        3.4839708286        1.0660218701
  H        14.0827976789        4.6804865056        2.2488362002
  C        11.9612115560        5.7739384608       -3.0413035854
  C        11.0960316810        4.8074641256       -3.5315840508
  C        11.0816543353        4.5557229946       -4.9579626561
  C        12.0473122380        5.1657764899       -5.8015126331
  C        12.9259979976        6.1105783140       -5.2270845799
  C        12.8872673675        6.4559614391       -3.9406269352
  H        13.3955097387        7.2646036489       -3.5305492435
  H        13.5855205879        6.7013722297       -5.8506270040
  H        12.1278840718        4.8179727101       -6.8059993412
  H        10.5686787920        3.6812847494       -5.3948941176
  H        10.4611877498        4.2620525795       -2.8603498837
  C        18.2269645452        6.9379753037        0.7478966070
  C        17.2710221911        7.7648366857        1.4398315537
  C        16.1684140734        8.2897054308        0.7704405765
  C        15.2758137600        9.2616386715        1.4180343074
  C        14.1709919323        9.7088426721        0.7453692054
  C        17.5111130540        8.1466459890        2.8736680882
  C        18.3867688527        9.2358297249        3.1066672238
  C        18.4753843066        9.8624804025        4.3737069344
  C        17.6932969011        9.4625685425        5.4059193140
  C        16.8467617820        8.3544193062        5.1770233276
  C        16.6911217310        7.7585803032        3.9254597813
  H        15.4682318862        9.4949239429        2.4779628581
  H        13.4844077079       10.2645702215        1.3530749312
  H        18.8914990514        9.6134987300        2.2391816815
  H        19.0687616107       10.7507534897        4.4450682730
  H        17.8119877423       10.0275755017        6.3199995757
  H        16.0768035381        8.1084624532        5.9523331135
  H        15.9997546714        6.9538928736        3.7482046206
  C        18.2103832256        6.9925363676       -0.7137249997
  C        19.2087246750        6.2557856367       -1.4147897307
  C        20.2435269776        5.5985287487       -0.7305655257
  C        20.3497963394        5.5853475628        0.7456793333
  C        19.2526599750        6.1893483512        1.4288021687
  C        16.0516667979        8.1167265521       -0.6585719788
  C        17.1398052864        7.5653156497       -1.3824169172
  C        17.1185931864        7.8938279525       -2.8594167624
  C        17.7657251844        9.0179331963       -3.2796489650
  C        17.7532324236        9.3975824289       -4.6361324477
  C        17.1858557038        8.5478323905       -5.5840573657
  C        16.5280648668        7.4198365255       -5.1561921487
  C        16.3992082850        7.1564049085       -3.7981078693
  H        15.9600328902        6.2567842978       -3.3532276370
  H        16.1185334789        6.7238101996       -5.8899856187
  H        17.1988561465        8.8396456532       -6.7026097771
  H        18.3993385729       10.2259236365       -4.9668738987
  H        18.3650971484        9.5611334879       -2.5797289955
  C        14.9258770946        8.7781147778       -1.3798589739
  C        13.9394916818        9.4242087420       -0.6409077387
  H        12.9832060786        9.6689746368       -1.0277566556
  H        14.8802932726        8.7991367948       -2.4938324864
  C        19.0928543990        5.8070432900        2.9087288106
  C        18.1108383355        4.8722430622        3.3009057543
  C        18.0080395466        4.4020366314        4.5562864839
  C        18.7961378580        4.9644901095        5.5189563864
  C        19.7933014931        5.8891790659        5.2042654871
  C        19.9498144367        6.3531509491        3.8740565817
  H        20.6820340837        7.1385600949        3.5771042640
  H        20.3819763939        6.3271348031        6.0256400382
  H        18.6160702698        4.7157390108        6.5875459909
  H        17.2486021340        3.7170401853        4.9394069883
  H        17.4264095615        4.5125953535        2.4944351574
  C        21.4934069775        5.0302628989        1.4020146980
  C        22.5216206914        4.5241228990        0.6592119295
  C        22.4032175721        4.4060786572       -0.7478928268
  C        21.2720636388        4.8215136497       -1.4396067377
  H        21.2212861628        4.7829681674       -2.5353934167
  H        23.2425017736        3.9048308620       -1.2725250398
  H        23.4227160247        4.1915812069        1.1442001061
  H        21.5777625024        5.0551985775        2.5092242029
  C        19.0850754922        6.0502456397       -2.9064128169
  C        18.3394590740        4.8972252711       -3.2973927117
  C        18.4903873158        4.4409475199       -4.6304280588
  C        19.2818749424        5.1694511675       -5.5126291722
  C        19.9604368962        6.3271438312       -5.1249716818
  C        19.8788480723        6.7788187011       -3.8476672548
  H        20.2370147328        7.8029528693       -3.6338180384
  H        20.5316488225        6.8814702278       -5.8443514030
  H        19.4985349347        4.8595815782       -6.5377187544
  H        18.0417882460        3.5337705035       -5.0444656964
  H        17.7500441712        4.3841523686       -2.5886707094
