140

  C         0.4623335926        1.5361110099       14.7309691539
  C         1.5701973131        2.2596753688       15.3818681640
  C         2.6203216345        2.7773955712       14.6384581285
  C         3.7510309901        3.3640124109       15.3245028492
  C         4.8061811720        3.7309885125       14.6211596982
  C         1.6615329499        2.4900353479       16.8053938507
  C         0.9004690392        3.5509584010       17.3271300827
  C         0.9996055255        3.9813180772       18.6843749886
  C         1.8744773920        3.2853290816       19.5546084767
  C         2.5660766621        2.1575510648       19.0660439384
  C         2.4496695222        1.8470997907       17.7055531466
  H         3.8371704760        3.5153950675       16.3481143511
  H         5.6457472446        4.1887891227       15.1727427691
  H         0.2635297294        4.1570758547       16.6860671016
  H         0.3099500423        4.8032657122       19.1073972413
  H         2.0669353892        3.6447783128       20.5271601534
  H         3.1873938644        1.5858761705       19.7373477024
  H         3.1325074052        1.0625651653       17.3319934149
  C         0.5191268908        1.4380051146       13.2325345333
  C        -0.5080877920        0.6206359677       12.6292060133
  C        -1.5553441544        0.0617907421       13.3470712141
  C        -1.4644346735        0.0480209285       14.8077962833
  C        -0.3736767953        0.6689953338       15.4708419296
  C         2.7221504378        2.5994833743       13.1820016858
  C         1.5630062833        2.0583377022       12.5303002727
  C         1.5914057149        2.2180216697       11.0164609086
  C         0.7840991496        3.2803753357       10.5181469292
  C         0.8817242188        3.5965639603        9.1478063437
  C         1.8499526340        2.9156912438        8.2857926607
  C         2.5264001356        1.8366955814        8.7933283960
  C         2.3728026154        1.5302896814       10.1489313353
  H         2.9551257194        0.7322584214       10.5239415806
  H         3.2804430646        1.2961936960        8.2651051795
  H         1.9861813722        3.1483578690        7.2357715549
  H         0.1266007591        4.3330951702        8.8594363815
  H         0.1348476390        3.7709664645       11.2342607940
  C         3.8466782963        3.0677053068       12.5424059615
  C         4.9206691518        3.6100290989       13.2375287638
  H         5.9020652806        3.8017664653       12.7769370956
  H         3.9434295012        2.9704148915       11.4753296430
  C        -0.2722387865        0.3915140093       16.9262423858
  C         0.5617994095       -0.6308477257       17.4181091311
  C         0.3541085929       -1.1144844618       18.7466998731
  C        -0.4993347495       -0.4106462303       19.5953310083
  C        -1.1406243190        0.7312182148       19.1468164174
  C        -1.1948580091        1.0296250145       17.8348991874
  H        -1.7733002165        1.8797886884       17.4987123359
  H        -1.5829846469        1.4251217606       19.8930631662
  H        -0.5477683938       -0.7807692370       20.6652609346
  H         0.9120220450       -1.9817448331       18.9991463742
  H         1.2565080658       -1.1100194153       16.7050335022
  C        -2.3699161772       -0.7720094266       15.4865528592
  C        -3.4674406777       -1.3823289006       14.8669317682
  C        -3.6837436728       -1.2278268001       13.4751497759
  C        -2.7082678724       -0.5244388664       12.7761630499
  H        -2.7130639946       -0.5655358247       11.6491473082
  H        -4.6448891658       -1.5317766455       13.0236477797
  H        -4.1791740501       -1.8754128631       15.5547359569
  H        -2.3942140127       -0.7913107782       16.5695488399
  C        -0.4155748082        0.1956246100       11.1719126844
  C         0.3872433519       -0.9633282083       10.8373493543
  C         0.5843112756       -1.3116942230        9.4805222756
  C        -0.1941711816       -0.6663462202        8.4780447739
  C        -1.1166708814        0.3994282877        8.8164713409
  C        -1.1360530628        0.9557327155       10.0951390322
  H        -1.8274668685        1.7372766955       10.4010532717
  H        -1.7164342543        0.8115998639        8.0046488386
  H        -0.1181700389       -0.9230788111        7.4048617057
  H         1.3583520574       -1.9522955691        9.2040840849
  H         0.9994261968       -1.4316969806       11.6113844147
  C         7.8781082977        1.0349502406       14.8795588219
  C         8.9042391172        1.7876771269       15.5573544291
  C         9.9200754957        2.3719455720       14.7986200801
  C        10.9524884603        3.2047528866       15.4167941300
  C        11.8849993522        3.8804673098       14.6809058477
  C         8.9973483183        2.2242235496       17.0070642885
  C         8.4538414708        3.4505938475       17.3883184330
  C         8.3172264311        3.8590937558       18.7336010216
  C         8.9706668701        3.0838092518       19.6930087075
  C         9.6940869235        1.8661047220       19.2990417628
  C         9.6049874644        1.4179339411       17.9770671539
  H        11.0222576635        3.2798940023       16.4613787620
  H        12.5398665029        4.6047455070       15.1023838968
  H         8.0717238942        4.1498496585       16.6231952104
  H         7.7480985452        4.8142133036       19.0468030673
  H         8.8923136946        3.4420048616       20.7068535096
  H        10.3083167882        1.3863228877       20.0725884175
  H        10.3137218779        0.7570525978       17.6253094494
  C         7.8643938271        0.9804435561       13.3510722942
  C         6.7726363870        0.3631281135       12.6650836314
  C         5.6800395160       -0.1761878955       13.3736075314
  C         5.7129566390       -0.1882047477       14.8962233786
  C         6.7963106726        0.3682059031       15.5663881222
  C        10.0195985840        2.2745196468       13.3182354411
  C         8.9141135180        1.7377382511       12.6222002869
  C         8.8731085154        1.8849105147       11.1824227449
  C         8.2469141300        3.0134405541       10.6828398297
  C         8.3179001940        3.3416956951        9.3321970058
  C         9.1787795654        2.6728955188        8.4901563833
  C         9.9048046631        1.5363105181        8.9551712162
  C         9.7844583538        1.1635083624       10.3348363894
  H        10.4446579365        0.4171806026       10.8812511550
  H        10.5420803387        0.9508181777        8.3270354451
  H         9.2203682032        2.8009811061        7.4159774280
  H         7.7812940581        4.2521116531        8.9258134117
  H         7.6157589956        3.5775550207       11.3429604433
  C        10.9803836289        3.0703062411       12.6374786210
  C        11.8989926223        3.8220245845       13.3123543485
  H        12.6120473409        4.4742032440       12.7506213656
  H        10.8786465167        3.1643848893       11.5399180505
  C         6.7703348484        0.1980309119       17.0935782637
  C         7.4556289370       -0.9141168352       17.6492334838
  C         7.4087395358       -1.2741630711       19.0307902225
  C         6.6532059171       -0.4427057875       19.8785552369
  C         5.9098686635        0.6670065775       19.3377685925
  C         5.9559693365        0.9605345220       17.9906961710
  H         5.4515903533        1.8554311472       17.6579734453
  H         5.4818588457        1.3490577718       20.0528377885
  H         6.7718872464       -0.6267001665       20.9326048016
  H         8.0110715585       -2.0500185555       19.3715757518
  H         8.1540426889       -1.4143905325       17.0084784533
  C         4.5902704677       -0.8401167500       15.5197351413
  C         3.5788504295       -1.4068559411       14.8201225588
  C         3.5158173822       -1.3654504485       13.4367505851
  C         4.5166278025       -0.7271860091       12.7153397362
  H         4.3825855372       -0.5531748650       11.6664515761
  H         2.7492475663       -1.9643398933       12.9309131467
  H         2.7672575228       -1.9390884663       15.3035622109
  H         4.5377349323       -0.8855099739       16.6092834091
  C         6.7592259665        0.0525235353       11.1980693497
  C         7.3546129243       -1.1600494811       10.8162785147
  C         7.4151453678       -1.4330030659        9.3799730739
  C         6.7480466759       -0.6682895334        8.4133977336
  C         5.9773153507        0.4403150661        8.8902734650
  C         6.0886838180        0.7628093349       10.2398416428
  H         5.5816617924        1.7332665250       10.6090305641
  H         5.3764074977        0.9792172265        8.1537497907
  H         6.7384601002       -0.9515543598        7.3444052460
  H         8.0659586653       -2.2261351351        9.0424890393
  H         7.9634680057       -1.7753699412       11.5332548408
