140

  C         9.4217106697        7.6245158169        1.3815373108
  C         8.5007111392        8.4583086071        2.0674426133
  C         7.4240833681        9.0112589034        1.4126030226
  C         6.2398872185        9.5315408247        2.0469152115
  C         5.1735049138        9.9667953112        1.3003357829
  C         8.6370020428        8.8989273824        3.4781399937
  C         9.6133263119        9.7936559048        3.8186002248
  C         9.6850700163       10.4157195106        5.0950078244
  C         8.8300540727       10.0098188550        6.1542489875
  C         8.0081386744        8.9523670506        5.8312426582
  C         7.7928971798        8.4711074986        4.5185951340
  H         6.2194533971        9.6448774100        3.1312773652
  H         4.3039673739       10.4324791585        1.6880091970
  H        10.2046241763       10.3001478800        3.0613073305
  H        10.3512792900       11.2443532673        5.2973751319
  H         8.9012217878       10.5577437119        7.1562802971
  H         7.2603405585        8.5792635257        6.6023758002
  H         7.0786782346        7.6359174414        4.3856487326
  C         9.4541336022        7.5130671583       -0.0600070203
  C        10.4275794616        6.7151572038       -0.7559886130
  C        11.5267603762        6.2510897775       -0.0105238711
  C        11.6098311905        6.3841820799        1.3992296750
  C        10.5032748050        6.9493541801        2.0831955226
  C         7.4352786284        9.0501336119       -0.0781511506
  C         8.5045949398        8.4056251020       -0.8076468046
  C         8.5609851650        8.7603685524       -2.2646014766
  C         9.6526879725        9.6452712627       -2.5554003866
  C         9.8269269261       10.2038093581       -3.8411732231
  C         8.9662684088        9.7886069750       -4.8438607582
  C         7.9132157455        8.9205122823       -4.5730492692
  C         7.7867276259        8.3255475412       -3.2968078616
  H         7.0293494227        7.5366468937       -3.1735003210
  H         7.3737153636        8.5499142742       -5.4311850703
  H         9.0126250095       10.1989481656       -5.8476423173
  H        10.6573701760       10.8764222632       -4.0050665583
  H        10.4145919963        9.6902768181       -1.7795168571
  C         6.3437593595        9.6344531652       -0.7914134225
  C         5.2026925190        9.9954087445       -0.1280134566
  H         4.3576204939       10.4653728866       -0.5867619209
  H         6.3200558837        9.6652235157       -1.9198646536
  C        10.4492034675        6.7098157145        3.5167908924
  C         9.4692209647        5.7603049669        3.8663570996
  C         9.4513199757        5.2339318535        5.1505331137
  C        10.3880298461        5.5683341363        6.1497845614
  C        11.3144130031        6.5347358188        5.8467545071
  C        11.3100174627        7.1614473563        4.5669660602
  H        12.0547019151        7.9703409476        4.3566665289
  H        12.0751116364        7.0103677525        6.4397424915
  H        10.4099912583        5.1544397653        7.1459326153
  H         8.7532868676        4.4483396480        5.4184126991
  H         8.7318890584        5.3097606854        3.2083682472
  C        12.7513190829        6.0495701251        2.1710503055
  C        13.7941935106        5.5454283378        1.4181121504
  C        13.7321083015        5.3179342110       -0.0175888328
  C        12.5685679335        5.5955678054       -0.6771133773
  H        12.3479514616        5.1593481276       -1.6886119665
  H        14.5675406069        4.7757818238       -0.4240413086
  H        14.6945578734        5.1428220645        1.8695553701
  H        12.8732410157        6.0664222593        3.2961916234
  C        10.4118716348        6.4150817335       -2.1515180648
  C         9.7037482437        5.2887826825       -2.6957344154
  C         9.7021625374        5.0591390718       -4.0696284780
  C        10.5537409744        5.8664773893       -4.8067745048
  C        11.3978926152        6.8489489721       -4.3164962146
  C        11.3040317649        7.1457987304       -2.9089938671
  H        11.8202990579        7.9517417013       -2.4942972883
  H        12.0166169038        7.5575152500       -4.8885717583
  H        10.5128306128        5.7624819190       -5.8626818315
  H         9.1021365924        4.3258678845       -4.5819993748
  H         9.1027593939        4.6880269243       -2.0296839905
  C        16.9599799771        7.6194666107        1.2481320711
  C        15.9063628336        8.3727936930        1.8593981258
  C        14.7835950332        8.8367897013        1.1680286538
  C        13.7027276888        9.5458309931        1.8537486503
  C        12.6191665791       10.0143107201        1.0952574912
  C        16.0591948219        8.6972501259        3.2907846977
  C        16.9179856404        9.7174020600        3.6691768099
  C        16.8655954194       10.1167917632        4.9829215437
  C        15.9906963227        9.6158155598        5.9006283159
  C        15.1375957134        8.5665501743        5.5089398632
  C        15.2836885760        8.0181851628        4.2426888414
  H        13.6867615306        9.5128849570        2.9120656443
  H        11.7502602996       10.5553601048        1.5877289665
  H        17.6251323337       10.1853680846        2.9429781476
  H        17.5965528352       10.9309035190        5.2554432109
  H        15.8478479535       10.0224163332        6.9105004694
  H        14.5293468875        8.0880426713        6.2074512869
  H        14.7647737576        7.0862918704        3.9518457415
  C        16.9126907699        7.6647951660       -0.2202696413
  C        17.9051691858        7.0198444371       -0.9380401408
  C        19.0428570879        6.4735061708       -0.1944764001
  C        19.0925302102        6.4043043365        1.2288616955
  C        17.9399952185        6.8552040785        1.9446886434
  C        14.7471834012        8.8161792507       -0.2432565539
  C        15.8631677235        8.3306634400       -0.9777361240
  C        15.9532431626        8.7015780802       -2.4632768077
  C        16.9404541936        9.6379733092       -2.9159042518
  C        16.9948523017        9.9994970369       -4.2598154224
  C        16.0218739312        9.4816220365       -5.1328983372
  C        15.1153655245        8.4953673439       -4.7003558474
  C        15.0670238155        8.0765475484       -3.3524311264
  H        14.3737285712        7.2916908958       -3.0364651201
  H        14.4699250060        8.0419498248       -5.4287676002
  H        16.1424690693        9.7432978393       -6.2143725494
  H        17.8990075329       10.6351831336       -4.5108126203
  H        17.5838122302       10.0914855255       -2.1797061809
  C        13.6183021871        9.3627014896       -0.9715904102
  C        12.5897540998       10.0326365224       -0.3397459103
  H        11.7595981636       10.5189670172       -0.8867942639
  H        13.7104979860        9.5093020213       -2.0578438420
  C        17.7844134508        6.3519105198        3.3622538184
  C        17.0963717133        5.1450833188        3.6428638829
  C        17.1679822780        4.5975453986        4.9524041922
  C        17.8162390587        5.3048182979        5.9617648320
  C        18.5154490554        6.4493136426        5.6746929163
  C        18.5509426488        6.9493614723        4.3907619312
  H        19.2308040171        7.7497759944        4.2062840318
  H        19.2298270941        6.8475520114        6.4091594511
  H        17.7352687833        4.8561603634        6.9169091895
  H        16.6090080149        3.6955512612        5.1538422353
  H        16.6025618783        4.5623219113        2.8684210409
  C        20.1170286531        5.6755667581        1.8713350472
  C        21.0790352252        5.0492483508        1.1642256531
  C        21.0243081951        5.0592655728       -0.2796756115
  C        20.0609556538        5.7607442396       -0.9370704726
  H        20.0863527706        5.7290318852       -2.0291466683
  H        21.7741576040        4.4391555511       -0.7395556637
  H        21.7834452245        4.4038223937        1.6620337053
  H        20.0424463885        5.4731567091        2.9229519716
  C        17.8044508013        6.5393475615       -2.3675309573
  C        16.8557917745        5.5362911891       -2.6917863550
  C        16.7283031872        5.0425822232       -3.9905889078
  C        17.5957241634        5.4627141736       -4.9708567229
  C        18.5833421748        6.4230347536       -4.6204508159
  C        18.6478851814        6.9635035907       -3.3610885705
  H        19.3878128820        7.7285864065       -3.1857872072
  H        19.3477532283        6.6769091738       -5.4442738998
  H        17.4799624072        5.0962986341       -5.9937662357
  H        15.9425515794        4.3127093722       -4.1929782176
  H        16.0538536852        5.2411761765       -2.0228412148
