140

  C         9.1214739064        7.6780033844        1.3089167979
  C         8.0826779267        8.4365110117        1.9670303227
  C         7.0816455176        9.0611096530        1.1635234444
  C         5.8764018888        9.5738363323        1.7017870117
  C         4.8955215427       10.1902015870        0.9108542446
  C         8.1338954806        8.8525939855        3.3721915704
  C         8.9951041626        9.8954641062        3.6873655707
  C         9.1367537864       10.3432588620        5.0251566113
  C         8.4854393075        9.6744778446        6.0278032138
  C         7.4940573525        8.7371925482        5.6949920778
  C         7.2813927988        8.3269901066        4.3603398297
  H         5.6396078036        9.4781907971        2.7722672043
  H         3.9864495679       10.4484780528        1.4274577906
  H         9.4084005930       10.4486648548        2.8466274452
  H         9.7550982153       11.2118323807        5.2075450183
  H         8.5399767654       10.1501548190        7.0520062290
  H         6.8391114398        8.3329402083        6.5140978268
  H         6.5127977525        7.5638144407        4.2018647556
  C         9.1893410040        7.6547803377       -0.1433527366
  C        10.3084161928        7.0261634585       -0.7344343727
  C        11.3781214728        6.5398157881        0.0381488964
  C        11.3329408440        6.5023384624        1.4740936983
  C        10.1455244130        7.0845273770        2.1136003022
  C         7.2832179625        9.1117829568       -0.3116722876
  C         8.3956539009        8.4734139473       -0.9351443893
  C         8.6965057479        8.8852026426       -2.3135655012
  C         9.4264681847       10.0859008246       -2.5761383322
  C         9.5796345527       10.6693635921       -3.8222750224
  C         8.9304404238       10.2282703709       -4.9223367497
  C         8.0645037978        9.1260066142       -4.6355485981
  C         7.9392387836        8.4691146654       -3.3944271465
  H         7.4260397781        7.5168368387       -3.3531381899
  H         7.4368732457        8.7674008671       -5.4649290678
  H         9.0644263532       10.5335432098       -5.9728921429
  H        10.2583452502       11.4948510982       -3.8508113884
  H        10.0268877013       10.4806851052       -1.7970877189
  C         6.1967802313        9.7249391525       -1.0511611358
  C         5.0498056227       10.2555604002       -0.5011064979
  H         4.2219593520       10.6649926343       -1.0335902252
  H         6.2641791182        9.7356475427       -2.1814635556
  C        10.0291495290        6.8363171385        3.5680546880
  C         9.0549271519        5.8650291519        3.9421524955
  C         9.0746393993        5.3061198451        5.2030302212
  C        10.1341277739        5.6864551637        6.1121913435
  C        11.1520550191        6.5711827541        5.7840771333
  C        11.0201772275        7.1806251078        4.4416672131
  H        11.7049884480        7.9136893234        3.9867433646
  H        11.9634396168        6.7558101778        6.4915378383
  H         9.8750257179        5.2684520797        7.1016938925
  H         8.2532065850        4.6173649269        5.4706266421
  H         8.2842882304        5.5673864467        3.2432223845
  C        12.3973560581        5.9050819790        2.1821931010
  C        13.4753320805        5.2744867730        1.5670177119
  C        13.5387440771        5.3006324479        0.1654023235
  C        12.5369742167        5.8969992623       -0.5901215141
  H        12.5888349556        5.6610585845       -1.6802028004
  H        14.2953701378        4.7398423818       -0.3163976341
  H        14.1645260026        4.6419625366        2.0786071137
  H        12.2626238971        5.8657951471        3.2988811550
  C        10.3679115373        6.7816075091       -2.1878329342
  C         9.4403428623        5.8248143733       -2.7331472941
  C         9.4174852387        5.5693386261       -4.0657570824
  C        10.3091931041        6.1440055449       -5.0241645489
  C        11.2218890926        7.0333470927       -4.4329878322
  C        11.2091002816        7.3724394729       -3.0466203310
  H        11.9171331654        8.1490308092       -2.6541181852
  H        11.9259536224        7.5101299327       -5.0470481126
  H        10.3055137487        5.8061942665       -6.0986827952
  H         8.8125550964        4.7903781757       -4.4823476750
  H         8.8616467693        5.2209189721       -1.9937048572
  C        16.5861884965        7.4845220686        1.4224441963
  C        15.5428187662        8.1738762565        2.1269733647
  C        14.4497293616        8.8466737897        1.4735088715
  C        13.3499397295        9.4576386426        2.1327941869
  C        12.4026990892       10.2245072181        1.4968738417
  C        15.6272797005        8.4906458058        3.5736425509
  C        16.4734535748        9.5370796991        3.9036418948
  C        16.5481494757        9.9868898042        5.2260294007
  C        15.6181629698        9.4677650938        6.1673378921
  C        14.7222846942        8.3901426909        5.7960733500
  C        14.7743913690        7.8828858246        4.5031373988
  H        13.3221053229        9.3210148377        3.2017741397
  H        11.4964352354       10.5528931877        2.1072076185
  H        17.3057826744        9.8922602760        3.2331778851
  H        17.2216726548       10.7525402263        5.5302545038
  H        15.5518669114        9.7774549117        7.2231255091
  H        14.0314399342        8.1044578015        6.6266042731
  H        14.2239689511        7.0014380791        4.1933093969
  C        16.5128873764        7.5780037364       -0.0850982962
  C        17.6040571319        7.0010855698       -0.8270956038
  C        18.7126435135        6.4375327830       -0.2023024030
  C        18.8059679018        6.4537083391        1.2641434983
  C        17.7067501714        6.7682889303        2.0582177210
  C        14.5199299964        8.9939071508        0.0383350009
  C        15.5067385402        8.3613500280       -0.7563046642
  C        15.6112401233        8.8879881201       -2.2045983181
  C        16.3409859513       10.0169628938       -2.5726829172
  C        16.4750715408       10.4302955015       -3.8993064697
  C        15.7391749218        9.7740856540       -4.9259711745
  C        14.8967153758        8.7247512812       -4.4859323097
  C        14.8564502411        8.2155414436       -3.1603639116
  H        14.1095400177        7.4505825785       -2.9130256051
  H        14.1903362103        8.2901746864       -5.2018480237
  H        15.8437947573       10.0419239501       -5.9310041287
  H        17.2219344142       11.1400308160       -4.1384767150
  H        16.9039618170       10.4989042556       -1.8074520363
  C        13.5426093952        9.8698089212       -0.5909442496
  C        12.5426490011       10.4339600799        0.0881033185
  H        11.7345893989       10.9506511636       -0.4462420996
  H        13.5875832409        9.9147605207       -1.6938271018
  C        17.6013951659        6.2950573669        3.4970064169
  C        16.7361797121        5.2877036710        3.8603358285
  C        16.6725560775        4.8716902975        5.2177826260
  C        17.4921635151        5.4531913580        6.2039538156
  C        18.4545513793        6.4354800260        5.7722783817
  C        18.4902665565        6.8436760443        4.4381624666
  H        19.1856986677        7.6642550704        4.1828275328
  H        19.2059341120        6.8693567969        6.4465300885
  H        17.6171092261        4.9875374062        7.2149897878
  H        15.9402796831        4.1212923609        5.5672965802
  H        16.2246013254        4.7889108290        3.0211361472
  C        20.0658675530        5.9532058639        1.8164782495
  C        20.9882165986        5.3490629867        1.0479462320
  C        20.8772138999        5.2558557806       -0.3535113184
  C        19.7464529724        5.8314970607       -0.9615312581
  H        19.6705935805        5.8111673244       -2.0494531544
  H        21.5463791351        4.6981434328       -0.9908836993
  H        21.9025287017        5.0662481818        1.4815894453
  H        20.3384065482        5.9454186647        2.8761849757
  C        17.3912646335        6.5767068816       -2.2152828811
  C        16.6210960905        5.4326378354       -2.5000503846
  C        16.5348616034        4.9942492696       -3.8535895702
  C        17.2532764077        5.5784752150       -4.8736913236
  C        18.1208132673        6.6154919959       -4.5567524717
  C        18.0787771701        7.1580575430       -3.2354415680
  H        18.5945969530        8.0911891115       -2.9690374265
  H        18.6957811094        7.1163792978       -5.2874991604
  H        17.0593389715        5.3836106709       -5.9097436141
  H        15.8468541552        4.1712416806       -4.0367586075
  H        15.9707278252        5.0172864891       -1.6897746807
