140

  C        10.7077378271        7.2010918003        1.2207384211
  C         9.6655937354        7.7861464771        2.0430428605
  C         8.5930470421        8.4829305958        1.3494092957
  C         7.4138816379        8.9601477197        2.1093453179
  C         6.3627684961        9.6330938179        1.4601405896
  C         9.7132927860        8.1419024050        3.4896074939
  C        10.5085380620        9.2033519118        4.0210346254
  C        10.4899031926        9.6485963000        5.3584721298
  C         9.6442732998        8.8622936982        6.3252203511
  C         8.8537335645        7.8487427802        5.7846815515
  C         8.9431428214        7.4648776558        4.4566539189
  H         7.3882050129        8.7456949722        3.1598540982
  H         5.4756713857        9.8636842216        2.0657683361
  H        11.1309210294        9.8201673498        3.2595514674
  H        11.0218048799       10.5270915471        5.6447838435
  H         9.5600057844        9.2248918783        7.2914611205
  H         8.2079063387        7.2366106379        6.3999063560
  H         8.3241274555        6.6736581827        4.0775626286
  C        10.6380803108        7.3597365398       -0.2602016087
  C        11.6782565163        6.5875812317       -1.0543423610
  C        12.7439874921        5.9366022040       -0.3573148698
  C        12.7783243530        5.9534690151        1.0792986868
  C        11.7112269019        6.4445142992        1.8520733334
  C         8.5862166187        8.6417339559       -0.1258340988
  C         9.6475898320        8.0824171866       -0.8766491216
  C         9.7331785912        8.3842443570       -2.3657028198
  C        10.6260462673        9.3988855024       -2.8406421735
  C        10.5862987948        9.8114110451       -4.1835810968
  C         9.6276449926        9.2447213370       -5.0380286427
  C         8.8981344269        8.1536914148       -4.5635863361
  C         8.8945165047        7.6634972241       -3.2641099368
  H         8.2723283533        6.8409797429       -2.8709233998
  H         8.2305747669        7.6802525502       -5.2783737408
  H         9.6077674419        9.5316737526       -6.1380286776
  H        11.2011855285       10.7050120924       -4.4519359883
  H        11.2698926175        9.9087006500       -2.1013352494
  C         7.4996418910        9.4128531067       -0.7000058487
  C         6.3896349038        9.8379132290        0.0818696578
  H         5.6492804921       10.2706750632       -0.5611818067
  H         7.4792732169        9.7514679787       -1.7855568184
  C        11.7038880620        6.1165670271        3.2897511939
  C        10.9330393042        4.9888696747        3.5599835824
  C        10.8598826495        4.5391343503        4.9045230602
  C        11.5489230839        5.2156297604        5.9526379177
  C        12.2537983524        6.3956923423        5.5884920000
  C        12.3528439723        6.8226816284        4.2913242640
  H        12.9473124746        7.6878006454        3.9800930421
  H        12.7433746156        6.9894390528        6.3746752705
  H        11.5509393390        4.8773859602        7.0211437421
  H        10.3648251993        3.5653920275        5.0411125152
  H        10.5570738141        4.3366014267        2.7422133793
  C        13.8744207104        5.2250481360        1.6932639851
  C        14.9555046695        4.7435910937        0.9300601409
  C        14.9555844289        4.9118850695       -0.5099159902
  C        13.8827602843        5.4193653292       -1.1175675585
  H        13.8769586479        5.4000290709       -2.1682011172
  H        15.8398578652        4.6154524566       -1.0637073315
  H        15.7647845539        4.2813341014        1.4796580101
  H        13.9002345390        5.1239508592        2.7829569668
  C        11.5682901627        6.2712487148       -2.4947592268
  C        10.7304271934        5.2154674077       -2.9327239723
  C        10.8606035818        4.7246574686       -4.2426157363
  C        11.7302257699        5.2806041534       -5.1879828330
  C        12.6266714568        6.2842508708       -4.7415820240
  C        12.5563183011        6.7035854263       -3.3999066568
  H        13.1924175801        7.5147596090       -3.1224322503
  H        13.4255077390        6.7578133581       -5.3052059474
  H        11.8240763102        4.9039259620       -6.1821648267
  H        10.2706307051        3.8966185489       -4.6121931421
  H        10.0045331664        4.7721541626       -2.2086941503
  C        17.7927936189        7.2819651153        1.2870735570
  C        16.7665076864        7.9990075462        2.0486716488
  C        15.7408963665        8.6250548716        1.3885358110
  C        14.9138248798        9.5820045242        2.0761400313
  C        13.9406791475       10.2507280192        1.3876805497
  C        16.8119223382        8.2697601475        3.5182316999
  C        17.5788792989        9.3553061066        3.9621045646
  C        17.4752881148        9.7965363921        5.2588826112
  C        16.5190473324        9.2708511061        5.9843244031
  C        15.7471328171        8.1814842563        5.6418581500
  C        15.9127484583        7.5822402882        4.3928808030
  H        15.0250590688       10.0067946046        3.0686526441
  H        13.2792431159       10.9465420073        1.8850751935
  H        18.2444294556        9.7933728717        3.2283953993
  H        18.1282701732       10.5900592332        5.5913959714
  H        16.3357642497        9.7473049107        6.9654845672
  H        14.9967554827        7.8132181348        6.3168155621
  H        15.2331730150        6.8023908789        3.9662454126
  C        17.6866471080        7.2146138531       -0.1393782673
  C        18.7286007422        6.5448111380       -0.8709915843
  C        19.8369379893        6.0040724711       -0.2316915024
  C        19.8664934130        5.9321298920        1.2206446416
  C        18.8352783786        6.4469277835        1.9366495364
  C        15.5931000588        8.5173256344       -0.0318917756
  C        16.6108918426        7.8839833090       -0.8195888345
  C        16.6984284678        8.3120318080       -2.2555129070
  C        17.4683845032        9.4857983877       -2.4811692968
  C        17.5514358447       10.0380967274       -3.7589172147
  C        16.9337951982        9.4077442222       -4.8395585329
  C        16.2439295843        8.2027579509       -4.6712034157
  C        16.1139232695        7.6886136353       -3.3774766821
  H        15.6534686084        6.7927278634       -3.2287468387
  H        15.6723889839        7.8005397722       -5.5402042590
  H        17.0636218878        9.7396732076       -5.8544995901
  H        18.2305970506       10.8495569009       -4.0209013336
  H        17.9061316076        9.8311482242       -1.5645430557
  C        14.5212415748        9.1714517991       -0.7028460569
  C        13.6752764122        9.9364791764        0.0524575988
  H        12.8528322818       10.4051770593       -0.5267756233
  H        14.5557698040        9.1699063182       -1.7861818077
  C        18.7794704916        6.1220205110        3.3475644883
  C        18.1292677186        5.0047250982        3.8873327950
  C        18.2753419849        4.8145062712        5.2737483731
  C        19.1448151861        5.5494043446        6.0490087796
  C        19.7983018497        6.6224367678        5.5158141732
  C        19.5773059256        6.9110783903        4.2007483843
  H        19.9167128693        7.8398591213        3.7400673872
  H        20.5481132617        7.2216469917        6.0318488898
  H        19.2160405426        5.2584347410        7.0685619123
  H        17.7925696976        3.9365526918        5.7089686925
  H        17.4853594243        4.3564348589        3.3100253238
  C        20.9544988013        5.2132627014        1.7443606032
  C        22.0500876251        4.7832765428        0.9973287132
  C        22.0951069216        5.0760890555       -0.3596266802
  C        21.0478882977        5.6899237789       -0.9515785597
  H        21.1398410645        5.9074412257       -1.9958288837
  H        23.0315442531        4.9642419642       -0.9006841621
  H        22.9293012178        4.3237525224        1.4302256425
  H        20.8728052458        4.9808278856        2.7916172125
  C        18.7039028992        6.2921154419       -2.3599311165
  C        18.2086377427        5.0629596040       -2.8292479987
  C        18.1682337348        4.8152526606       -4.2378400307
  C        18.5935608014        5.7626713141       -5.1451754542
  C        19.0980316226        6.9770250985       -4.6630231589
  C        19.1993975399        7.2268184516       -3.3399013630
  H        19.7078505888        8.1221881297       -3.0443817132
  H        19.2617909559        7.7762353371       -5.4058410738
  H        18.5374436323        5.5961464889       -6.2306202738
  H        17.8537525838        3.8604269049       -4.6188814836
  H        17.9157105141        4.2261624752       -2.1795470648
