140

  C         4.0012412494       -0.0930339206       15.7189623640
  C         5.0548854711        0.6147869414       16.4396924390
  C         6.0626593738        1.1997443406       15.7551033015
  C         7.1106540395        1.9161390299       16.4220065723
  C         8.2226795681        2.4166182765       15.8227371088
  C         4.8824722651        1.1132359073       17.8354814325
  C         4.1056324833        2.2194022584       18.2078759886
  C         4.1251139819        2.6258505762       19.5801904637
  C         5.0876723765        2.1412028285       20.4925426950
  C         5.9025171366        1.0553778225       20.0747282672
  C         5.7820651282        0.5627243672       18.7893887486
  H         6.9962321284        2.0471117190       17.4701828362
  H         8.9499445902        3.0488426840       16.3574114515
  H         3.4591065353        2.6889418872       17.4857055118
  H         3.3984936912        3.3138481362       19.9445015242
  H         5.0979166691        2.4946161667       21.5453521464
  H         6.4763649716        0.5646556921       20.7858198092
  H         6.2997780419       -0.3148605728       18.4217872085
  C         4.0282085441       -0.0771397263       14.2175693458
  C         3.0558086235       -0.8881223940       13.5428857630
  C         1.9265259329       -1.4102910582       14.2209991890
  C         1.9556024108       -1.3607456334       15.6601279764
  C         3.0340260050       -0.8638571823       16.3944377848
  C         6.1587856719        1.1148374233       14.2792464030
  C         5.1349175234        0.5670971652       13.4962898893
  C         5.0685734801        0.9709149045       12.0496522858
  C         4.2508814512        2.0171669407       11.6298612322
  C         4.1500447505        2.3218667786       10.2589721958
  C         5.0702630075        1.7364085850        9.3397551342
  C         5.9909142924        0.7403586972        9.7556282704
  C         5.9514450770        0.4320663318       11.1263325011
  H         6.5908186055       -0.4027608769       11.4370539322
  H         6.7641272565        0.2224894653        9.1186123885
  H         4.9924803372        1.9639881944        8.2940774743
  H         3.4477696864        3.1169222780        9.9239507421
  H         3.5892126528        2.4813149032       12.3814476179
  C         7.3632770502        1.7655908096       13.6682252723
  C         8.3530717108        2.3149205017       14.4246429345
  H         9.1282909738        2.8080567281       13.8565835099
  H         7.4051921229        1.8615507941       12.5848310902
  C         3.1638325519       -1.2088523297       17.7934188084
  C         4.1277742537       -2.1804170894       18.1501234008
  C         4.2763288666       -2.5336817273       19.4978522953
  C         3.4085325241       -2.0554288684       20.5014258804
  C         2.4674671092       -0.9899286992       20.1325600047
  C         2.4265690098       -0.5873517852       18.8232981291
  H         1.7491390465        0.2200381015       18.5881855922
  H         1.8714486260       -0.5651279690       20.8959636167
  H         3.4644067033       -2.3804298932       21.5171277602
  H         5.1067166596       -3.2371368598       19.7826454305
  H         4.8429244123       -2.5175879163       17.4282369145
  C         0.8279805330       -1.9564769302       16.2413629335
  C        -0.2908710744       -2.5587030738       15.5689514989
  C        -0.2186305483       -2.6454674390       14.1681144381
  C         0.8788678976       -2.1354107773       13.5253842399
  H         1.0968591480       -2.3468588591       12.4875386012
  H        -0.9701466546       -3.2113946401       13.6118140790
  H        -1.0460379423       -3.0058890605       16.2832662170
  H         0.7860737572       -2.0401725454       17.3295884754
  C         3.1665028094       -1.1999889109       12.0865776860
  C         4.0101640933       -2.1820965906       11.5882460921
  C         3.8918056870       -2.6684755759       10.2814135888
  C         2.9273307136       -2.1912059922        9.4232569916
  C         2.1293308977       -1.1140146016        9.8657220973
  C         2.2510152951       -0.6649042225       11.1712021655
  H         1.5738550014        0.1557235217       11.5172714023
  H         1.5135236818       -0.6723694716        9.1137337866
  H         2.8087820375       -2.6851226356        8.3986967024
  H         4.5980933171       -3.4326295997       10.0235559050
  H         4.7487562051       -2.5140670093       12.2889174410
  C        11.1980624318       -0.0382705889       15.5003736952
  C        12.2515141612        0.6443805474       16.1929174763
  C        13.3999220175        1.0867100964       15.5648491475
  C        14.5208937569        1.5329457458       16.2751579145
  C        15.5828557661        2.2289756925       15.6714313311
  C        12.1093736791        1.0506985665       17.6464255137
  C        11.2269659841        2.0385052456       17.9955837324
  C        11.2117653448        2.5236235054       19.2966019480
  C        12.0570508570        2.0441242340       20.2963928657
  C        12.8773557471        0.9854665562       19.9231222949
  C        12.9403536744        0.4819046601       18.5837712938
  H        14.4398771137        1.4288582863       17.3232350528
  H        16.3449716055        2.7233598182       16.2532899735
  H        10.6044702695        2.5216895634       17.2718602814
  H        10.5439343964        3.3522689528       19.5061875049
  H        12.1360509660        2.5193049695       21.3016841803
  H        13.5431277402        0.5431016399       20.6638510813
  H        13.5843308267       -0.3750238122       18.3019574532
  C        11.2048027056       -0.0249251956       13.9628093002
  C        10.1717250917       -0.7483753777       13.3857718040
  C         9.1952050026       -1.4399794708       14.1239631297
  C         9.1687455723       -1.4322980839       15.5856616944
  C        10.2043361353       -0.7358330248       16.2278088463
  C        13.4126510730        1.0992380430       14.1040804176
  C        12.2919518096        0.6445798030       13.3757431455
  C        12.2758828027        0.9633618156       11.9968353115
  C        11.4854187389        1.9764582437       11.5282956079
  C        11.2349190657        2.2304103811       10.1869188354
  C        11.9636343686        1.4880792242        9.2456476514
  C        12.8411354584        0.4722594592        9.6893101781
  C        13.1070136314        0.3018516437       11.0454204383
  H        13.8761548982       -0.4021315796       11.3600347724
  H        13.4024861448       -0.0537062368        9.0004774822
  H        11.8801647113        1.6338337595        8.1684408706
  H        10.5833639072        3.1014252484        9.8777974380
  H        10.9027896354        2.4709279659       12.2653759873
  C        14.5518940658        1.7073201123       13.4934715178
  C        15.5624506358        2.3451341402       14.1956632504
  H        16.1986255019        3.0654770876       13.7078744125
  H        14.5183554360        2.0918859575       12.4430717437
  C        10.3628567807       -1.0962805672       17.6939012221
  C        11.2848321879       -2.1392267156       18.0504410508
  C        11.4393681766       -2.5451338736       19.3742606814
  C        10.5655841903       -2.0953801323       20.3521696894
  C         9.5793257684       -1.1737544710       19.9765025099
  C         9.4702492382       -0.6292738521       18.6790607316
  H         8.7565404920        0.1871997008       18.5294921998
  H         8.8643489481       -0.8564081122       20.7234018144
  H        10.8333886073       -2.3750747168       21.3837446154
  H        12.2953412845       -3.2149968753       19.6326090793
  H        11.7950983710       -2.6434983144       17.2213843560
  C         8.1453393613       -2.2451624704       16.3024830910
  C         7.1794773814       -2.8631315584       15.5514149716
  C         7.0947999647       -2.7892655199       14.1674292709
  C         8.0659294003       -2.1226848879       13.4540747976
  H         8.0815882259       -2.1496334510       12.3536038447
  H         6.3193941028       -3.3065893240       13.6351385114
  H         6.4166596883       -3.4434777304       16.0504642352
  H         8.3018555819       -2.6116278030       17.3344493498
  C        10.2376726357       -1.1935015206       12.0013938253
  C        10.8715530179       -2.3621159300       11.5495814769
  C        10.6022255386       -2.8422363313       10.2468899570
  C         9.9917185501       -2.0704548701        9.2314670841
  C         9.4946463914       -0.8175319200        9.7120060688
  C         9.5483711578       -0.4201552092       11.0455457875
  H         9.2634504156        0.5885818060       11.3827400927
  H         8.9359221884       -0.1669459777        9.0671048900
  H        10.0356688189       -2.5075111315        8.2517382461
  H        11.0133366613       -3.8106851901        9.9965415554
  H        11.4879527835       -2.9370393099       12.2281678065
