140

  C         1.5215628804        1.1697160553       15.0441017733
  C         2.4869626484        1.8202455491       15.8388610412
  C         3.5813275517        2.4393197915       15.1235419971
  C         4.6646661648        3.0415377757       15.8490063224
  C         5.8338074773        3.4344519044       15.2581133998
  C         2.3613374130        2.2554026993       17.2893289717
  C         1.5453593861        3.3217109150       17.6153110896
  C         1.6955958541        3.9607823692       18.9053955677
  C         2.5334082006        3.3803552724       19.8718730308
  C         3.3561677785        2.3114387289       19.5676537969
  C         3.1955616675        1.7630159686       18.2834145608
  H         4.7107832406        2.9091665019       16.9658252870
  H         6.5486248614        3.8948767647       15.9386202894
  H         0.9140364451        3.8020144764       16.8764492804
  H         1.0330430030        4.8178065265       19.1795772429
  H         2.6729867181        3.8950216445       20.8438534754
  H         4.0833665061        1.9389873467       20.2231270441
  H         3.8880352432        0.9992455095       17.8993966039
  C         1.5732147305        1.2515326026       13.5470294088
  C         0.6398852586        0.5111992064       12.8257776754
  C        -0.5410139456       -0.0889113226       13.3923649668
  C        -0.6025419058       -0.1192564953       14.8181006688
  C         0.4151356454        0.4974444959       15.5929268722
  C         3.7256390756        2.4358060517       13.6510033919
  C         2.6327381438        1.9699334232       12.8621209556
  C         2.6608617833        2.3218102967       11.4342204868
  C         1.9063227872        3.4101205521       10.8918376511
  C         1.8491528405        3.5811103474        9.5129055925
  C         2.6816358482        2.8622538404        8.6273537989
  C         3.5388983908        1.9443520272        9.2144848515
  C         3.4046204884        1.5555802487       10.5209524383
  H         3.8956619433        0.5934349587       10.7151527151
  H         4.3157130905        1.4440472283        8.5495189888
  H         2.6609220463        2.9688398716        7.5142351441
  H         1.0885092122        4.2475330562        9.0984451444
  H         1.3145381679        4.0637556099       11.5974277310
  C         4.9285577291        2.9261872386       13.0684993121
  C         6.0130896593        3.3823863829       13.8518580933
  H         6.9310528268        3.8471993318       13.3969059863
  H         4.9980486705        2.9535468208       11.9612095257
  C         0.6056320818        0.1323384148       17.0712218239
  C         1.5166984424       -0.8921676338       17.3922876524
  C         1.5061527557       -1.5311394323       18.6469704959
  C         0.6988036369       -0.9761527825       19.7142394093
  C        -0.1894660576        0.0386384980       19.3885976837
  C        -0.2247265315        0.5972646964       18.0640899461
  H        -1.0208141101        1.3167053698       17.7629844139
  H        -0.9866059006        0.2287294014       20.1120841238
  H         0.5625115328       -1.4213901383       20.6962974307
  H         2.2368332036       -2.2708154603       18.7976576303
  H         2.0939823614       -1.4403736601       16.6639209170
  C        -1.7297184524       -0.9108312401       15.4377678194
  C        -2.6946013686       -1.4549648338       14.5843077199
  C        -2.5861354662       -1.3345298617       13.1211623358
  C        -1.5671073319       -0.6801276842       12.5487879379
  H        -1.4917344670       -0.7980957302       11.4907212176
  H        -3.4609422526       -1.6489672147       12.5372453521
  H        -3.6197036575       -1.9419811576       15.0051203410
  H        -1.8970719028       -0.8376041088       16.4879627380
  C         0.7300957491        0.2699555305       11.3473296166
  C         1.2922831519       -0.9402111682       10.9530512969
  C         1.3008432584       -1.4096447796        9.6748863816
  C         0.5594112679       -0.7243628408        8.6413716438
  C         0.0500919849        0.5106393654        9.0113642594
  C         0.0430255346        0.9446759431       10.3376349902
  H        -0.4564515470        1.8804136254       10.5960724123
  H        -0.4270273353        1.1009671060        8.2125732796
  H         0.6158437907       -0.9543109370        7.5836719187
  H         1.8198437734       -2.3493437391        9.5489916498
  H         1.7619498430       -1.6040826464       11.7425515510
  C         8.7007263418        0.9150984371       14.9222057249
  C         9.8425349707        1.5703270938       15.4968194847
  C        10.9116783480        2.0607168469       14.7002320831
  C        12.0546910523        2.6198429025       15.2992337140
  C        13.1322171678        3.0867025722       14.5358169470
  C         9.8318009297        1.9519488695       17.0046370196
  C         9.0956509298        3.0712343016       17.4857585292
  C         9.3005847806        3.5583983321       18.7784525229
  C        10.1233266067        2.8251259514       19.6965231166
  C        10.8468101409        1.7503706220       19.2250146091
  C        10.6430614871        1.2471290740       17.9021923698
  H        12.1812835260        2.7355884410       16.3931747763
  H        13.9930388708        3.5331038876       14.9860310055
  H         8.4676275193        3.6345231394       16.7638792156
  H         8.8817570460        4.4438896682       19.1091723891
  H        10.2028951596        3.3488121047       20.7068928063
  H        11.5224217751        1.1524121743       19.8559761412
  H        11.2140523491        0.4022579779       17.5313433292
  C         8.6778086051        0.9366146637       13.4286216169
  C         7.7284779519        0.0848631905       12.7752335639
  C         6.5398279155       -0.2866929802       13.4860647954
  C         6.4339641929       -0.1709513641       14.8977057283
  C         7.6207121246        0.3486055621       15.6203264843
  C        10.7926338360        2.1963204821       13.2344660627
  C         9.6361891908        1.6384079646       12.6667059169
  C         9.3445327607        1.9788650634       11.1840432224
  C         8.6489670520        3.1422334692       11.0918183121
  C         8.3646451591        3.7043706845        9.8528993811
  C         8.9356953500        3.1154625485        8.7201643886
  C         9.7443534012        1.9965694882        8.8041302433
  C         9.9666636094        1.4025738024       10.0514775056
  H        10.6644767679        0.5704563338       10.1324786859
  H        10.1660022989        1.5721598437        7.8778578056
  H         8.9209937052        3.5434731926        7.7016170659
  H         7.8683359891        4.6422738655        9.7669887992
  H         8.2324324832        3.6098536571       11.9751737001
  C        11.9040833862        2.7298487907       12.4914556497
  C        12.9788440937        3.1592455536       13.1564565207
  H        13.7484182095        3.7278054866       12.6303158570
  H        11.8236794605        2.7311577267       11.3947087678
  C         7.6504678494       -0.0382852960       17.0988819067
  C         8.3192391100       -1.2121427093       17.5100051244
  C         8.3175572404       -1.6530594454       18.8782351455
  C         7.5676955522       -0.9501554373       19.7941050791
  C         6.9258470543        0.2237727681       19.3922336013
  C         6.9617500594        0.6730771586       18.0978683192
  H         6.4656795304        1.5453008912       17.7949903441
  H         6.2389377872        0.6688058929       20.1242092332
  H         7.4028663093       -1.3404367574       20.7837649826
  H         8.8361901534       -2.5507907760       19.2071345210
  H         8.7645535515       -1.8398114999       16.7679844548
  C         5.3166738811       -0.8313864767       15.5004774297
  C         4.3096617322       -1.4624004685       14.8224499791
  C         4.4181436162       -1.4811546304       13.3943296916
  C         5.5038937159       -0.9702879072       12.7055498034
  H         5.4830038289       -1.0313078803       11.5937594926
  H         3.6568983157       -1.8508596541       12.7108366779
  H         3.5448617885       -2.0264527335       15.3618546961
  H         5.2579853703       -0.9169220213       16.5817141802
  C         7.7406624327       -0.3161415761       11.2790439732
  C         8.5897195660       -1.2976193425       10.8401472292
  C         8.5083411379       -1.7408342975        9.5281107820
  C         7.7730871625       -1.0541540114        8.6252769403
  C         6.9468216144       -0.0019241486        9.0325984256
  C         6.8659048449        0.3413251706       10.3767915529
  H         6.3724586707        1.2062813333       10.8059352273
  H         6.3659542390        0.6238356456        8.2863970409
  H         7.8728624561       -1.3241884707        7.5518215371
  H         9.2045633661       -2.5117307912        9.1676327695
  H         9.2333748899       -1.7632461824       11.5798615859
