140

  C         4.9758289093       -1.4445077460       13.8683115924
  C         6.0468803702       -0.7603438818       14.5458628635
  C         7.2514302257       -0.3430746528       13.8805038452
  C         8.3849899219        0.2990562652       14.5613447680
  C         9.5104351721        0.8205725099       13.9339908606
  C         6.0094397706       -0.5268265886       15.9882560325
  C         5.2368551814        0.5286358744       16.4677960911
  C         5.2956339813        0.9108769078       17.7936450636
  C         6.0327893429        0.1380179748       18.7574157722
  C         6.8587479235       -0.8937387596       18.2722201615
  C         6.8556615556       -1.1888748824       16.9133139440
  H         8.3571549224        0.3024936970       15.6389992571
  H        10.3058343996        1.2135959909       14.5054070240
  H         4.5113076769        0.9704094911       15.7824392791
  H         4.7154743568        1.7722460956       18.2529788569
  H         6.1866665715        0.4550948442       19.7746338916
  H         7.5168821306       -1.3522101802       19.0289922600
  H         7.5384311833       -1.8947793357       16.4729896564
  C         5.0057236214       -1.4277949510       12.3827296926
  C         3.8905603342       -2.0029218091       11.6709904235
  C         2.8552145924       -2.5747383971       12.3625156347
  C         2.9123932151       -2.7116459520       13.8054565797
  C         3.9851515649       -2.2003633303       14.5234845863
  C         7.2292536302       -0.2882668603       12.4420816439
  C         6.0300320159       -0.6824156873       11.7548561444
  C         5.9730577920       -0.0748292994       10.3678315238
  C         5.2418026256        1.0972842138       10.0543635726
  C         5.2442261250        1.5572134170        8.7327516362
  C         5.9894689963        0.9332012154        7.7106217186
  C         6.7851795617       -0.1692188264        8.0576150035
  C         6.7075665233       -0.6721088804        9.3313001278
  H         7.1319192037       -1.6429614985        9.5883227403
  H         7.4613413423       -0.5638542558        7.3134992045
  H         6.0559779179        1.3454133944        6.7175314897
  H         4.6123796144        2.4045480418        8.4043110821
  H         4.6616316131        1.5688380192       10.8402141456
  C         8.3539343871        0.3151587836       11.8364722177
  C         9.5456048484        0.7168391997       12.4849381049
  H        10.3384049015        1.1959152640       11.8575994426
  H         8.3336688223        0.5888560501       10.7431970196
  C         3.8885664389       -2.5692686918       16.0059959864
  C         4.7905857114       -3.6056767943       16.4813657493
  C         4.7379148195       -4.0197860020       17.8282809313
  C         3.7770143633       -3.4465317055       18.7090695860
  C         2.8774920877       -2.4705297864       18.2078907634
  C         2.9661746816       -1.9953413016       16.8834853838
  H         2.2310742936       -1.2127746077       16.5403895309
  H         2.2365948274       -1.9467140521       18.8716933375
  H         3.6362559674       -3.8214189575       19.7274385678
  H         5.3110264365       -4.8552680737       18.2713792329
  H         5.4476731091       -4.1165579894       15.8044234186
  C         1.8190782464       -3.4505865584       14.4439656096
  C         0.7741436308       -4.0272013422       13.7310931571
  C         0.8098473361       -3.8731361611       12.3519556867
  C         1.7872050613       -3.2239554012       11.6908853750
  H         1.6698049242       -3.2728171662       10.6099991786
  H         0.0144665355       -4.3395120302       11.8469444841
  H        -0.0385194201       -4.4583565435       14.2496989840
  H         1.7742581357       -3.5506912250       15.5483446191
  C         3.9259579252       -2.1700599355       10.1740880407
  C         4.7182129572       -3.1726141422        9.5948053418
  C         4.7273822246       -3.3875007378        8.1911208775
  C         4.0283496228       -2.5014100171        7.3717253669
  C         3.1833977678       -1.5585194682        7.9269918879
  C         3.1549700987       -1.3956972076        9.3228121907
  H         2.5251951050       -0.6363244447        9.7203221719
  H         2.6020052578       -0.8259670669        7.3039343998
  H         4.2316320264       -2.7203159478        6.3084161118
  H         5.3148054640       -4.2361094637        7.7556306438
  H         5.2706780583       -3.8824961695       10.2216118530
  C        12.2331685313       -1.2085412646       13.7218208619
  C        13.2054276038       -0.4052200346       14.4026345634
  C        14.3073923124        0.0870448940       13.6994862071
  C        15.4942903408        0.6426248439       14.2978451638
  C        16.5093011815        1.1227767836       13.5562202296
  C        13.1315886217       -0.1764907487       15.8586502515
  C        12.2756080997        0.8722077299       16.3242781743
  C        12.2442616283        1.1845991463       17.7000002292
  C        13.0719959838        0.4489379181       18.5639305818
  C        13.8770313808       -0.5636014265       18.1228659768
  C        13.9672416006       -0.8787153796       16.7875520921
  H        15.6443447267        0.7180143977       15.3519742022
  H        17.4088456992        1.6142969735       14.0346789590
  H        11.7164856112        1.4199054567       15.5614560058
  H        11.5723951552        1.9158570305       18.1315371970
  H        12.8817523489        0.4703692466       19.6492645314
  H        14.5378471212       -1.1211162101       18.8031788183
  H        14.6632404237       -1.5573839268       16.4265536847
  C        12.1872610525       -1.2195837664       12.2767259003
  C        11.1498049447       -2.0027157545       11.6299651970
  C        10.0920500887       -2.5563229768       12.3352141590
  C        10.1845004987       -2.5599137276       13.7424058757
  C        11.2788020527       -1.9846360247       14.5034311844
  C        14.2239661983        0.1227264487       12.2420841873
  C        13.1576725911       -0.5029973731       11.5338024938
  C        13.1232427065       -0.2846510981       10.0837917216
  C        12.3739248080        0.7653051360        9.4515504771
  C        12.3051959665        0.9356778199        8.1019850292
  C        13.0322272686        0.1420125996        7.2768871382
  C        13.9003284491       -0.7804336490        7.8483879267
  C        13.9803867217       -0.9784517165        9.2348882653
  H        14.6148004144       -1.8012318872        9.5775352489
  H        14.6890511711       -1.3137177605        7.2140791038
  H        12.9979921518        0.2503420832        6.1424777435
  H        11.5368501147        1.6580418067        7.7025570105
  H        11.7775433305        1.3763095186       10.1499968928
  C        15.3489035216        0.6356886994       11.5257059665
  C        16.5190057988        1.0940929971       12.1078174566
  H        17.2441814052        1.6632048055       11.5479035753
  H        15.2321600182        0.7126588557       10.4601481602
  C        11.4121909453       -2.4109386906       15.9575491890
  C        12.2615251548       -3.4954094592       16.3379271797
  C        12.2661319106       -4.0332946168       17.6474167399
  C        11.4766460977       -3.4221371267       18.6330790960
  C        10.6336181179       -2.3633880852       18.2904013757
  C        10.6534806336       -1.8221278369       16.9820453470
  H         9.9657164444       -1.0333165920       16.6873050830
  H        10.0262349412       -1.9187382127       19.0080352622
  H        11.5420589444       -3.9149122213       19.6443085792
  H        12.8383325680       -4.9214636005       17.8138921714
  H        12.9178798653       -3.9704229848       15.6012587063
  C         9.1136706681       -3.3069692803       14.4498455712
  C         8.1228771367       -3.9974963475       13.7844855125
  C         8.0124882877       -3.9462235519       12.3967290990
  C         9.0675832264       -3.3557752397       11.6403452783
  H         9.0838367682       -3.3860757008       10.5129964645
  H         7.1931837680       -4.3826421036       11.8509162588
  H         7.5804017099       -4.6998687161       14.3107958864
  H         9.3037197827       -3.5000719052       15.5202483691
  C        11.2122801253       -2.3679685446       10.1867553365
  C        12.1436968998       -3.3514968696        9.7365816904
  C        12.2779244428       -3.6793891323        8.4080373600
  C        11.3965078510       -3.1036764602        7.4925332563
  C        10.4781873163       -2.1116243976        7.9196880513
  C        10.3717863199       -1.7330351166        9.2621922652
  H         9.7061422497       -0.8918065077        9.5493224716
  H         9.9772573434       -1.5160197094        7.2293115622
  H        11.3606182887       -3.3766226516        6.4401346966
  H        12.8974231447       -4.4981349374        8.1758868082
  H        12.8631618586       -3.8427380977       10.4082890955
