140

  C         2.8782655886        0.1696403878       14.6269585891
  C         3.9685494005        0.7108145021       15.4416637888
  C         5.0765614364        1.3551118636       14.8548915875
  C         6.1106960199        2.0189111484       15.6648152304
  C         7.1371339263        2.7188130747       15.0609033378
  C         3.8069410204        1.0104423819       16.8492197609
  C         2.9747532575        2.0910672746       17.1851141736
  C         3.0483393093        2.7389991960       18.4193124424
  C         3.8617209400        2.1424468320       19.4482844858
  C         4.6113014861        1.0142791886       19.1877051504
  C         4.6224026050        0.4738282744       17.8269535925
  H         6.1371708787        2.1231380543       16.7256276175
  H         7.7701965410        3.3835432529       15.5962904710
  H         2.4190661859        2.5689702195       16.3511140655
  H         2.3621669320        3.5677801031       18.6744368419
  H         4.0545613350        2.5764327331       20.3977129255
  H         5.1678909710        0.5272108943       19.9831739745
  H         5.2772667114       -0.3216930079       17.5148573220
  C         3.0935092561        0.2626312852       13.1243015898
  C         2.0204626946       -0.2412219089       12.2906331932
  C         0.8476454951       -0.7816512558       12.9006869648
  C         0.7650736176       -0.9697444219       14.3541923196
  C         1.8567208676       -0.6264740794       15.1990129421
  C         5.2442036717        1.4194242261       13.4710683086
  C         4.1876278200        0.9505316916       12.6137320783
  C         4.2470674630        1.3848875638       11.1551594345
  C         3.5644556921        2.5447534203       10.7225238105
  C         3.8215706661        3.1142429811        9.4391415151
  C         4.5444801180        2.3658660267        8.5181984399
  C         5.1065677300        1.1745927180        8.8904646673
  C         5.0345263686        0.7061769804       10.2096049735
  H         5.3409875119       -0.2961067295       10.3872100127
  H         5.6791861227        0.6275355423        8.1786243322
  H         4.7505530790        2.6378943445        7.4916194171
  H         3.2544288057        3.9396084788        9.0892353710
  H         2.8157598275        2.9837430264       11.3948428922
  C         6.3887141495        2.2267793152       12.9065517200
  C         7.3004303280        2.7787416281       13.6643361966
  H         8.1437847904        3.3264855675       13.2558903652
  H         6.5631078978        2.1928190540       11.8473025359
  C         1.8783666548       -1.0551758324       16.5715912906
  C         2.5652268476       -2.1915919854       16.9392338985
  C         2.6739115261       -2.5646345359       18.2855764316
  C         2.1008226552       -1.7958198496       19.3119160665
  C         1.1497404683       -0.8220161228       18.9077357503
  C         1.1236759923       -0.4562671679       17.5810420387
  H         0.4802432713        0.4176745249       17.2917651449
  H         0.6162700188       -0.2436756704       19.6241267881
  H         2.1709503959       -2.0224024202       20.3392533419
  H         3.3655505634       -3.3004200217       18.5456555080
  H         3.2023296584       -2.7487814343       16.2496677538
  C        -0.4136557728       -1.5592565724       14.9453031430
  C        -1.4626369785       -1.9302023026       14.1194203879
  C        -1.2259326045       -1.9536244177       12.7377529200
  C        -0.1101290327       -1.5014810377       12.1324385393
  H        -0.0117498923       -1.6335219746       11.0571054076
  H        -1.9440167654       -2.4653139279       12.1388582030
  H        -2.3209032880       -2.4313264411       14.5718515603
  H        -0.3775795053       -1.6516697544       16.0083494334
  C         2.1674815582       -0.4690953294       10.8024964585
  C         2.9720423965       -1.5619815090       10.3781767735
  C         2.7348412275       -2.0417567809        9.0944615036
  C         1.7772534493       -1.4267739896        8.2112374456
  C         1.1208249212       -0.3012627437        8.5600590523
  C         1.2715021765        0.1324066838        9.8978165405
  H         0.6802400595        1.0379411343       10.2288692621
  H         0.4562089861        0.2713850956        7.8324687713
  H         1.5512282296       -1.7877723253        7.2346196636
  H         3.2346643316       -2.8972779572        8.6384992454
  H         3.7358865575       -2.0357803158       11.0215485203
  C        10.3541938288        0.1756594494       14.5907852803
  C        11.3896089359        0.8656799846       15.2648526017
  C        12.4485761704        1.4441546515       14.5570971062
  C        13.5757283289        1.9431187489       15.2765944939
  C        14.6522154327        2.5008944481       14.6064256821
  C        11.2832869795        1.1795561971       16.7636478456
  C        10.5647919407        2.3269091151       17.1969163125
  C        10.5573225485        2.6837749472       18.5657225859
  C        11.3352226780        1.9126792770       19.4534320940
  C        12.0231553941        0.7797853449       18.9804109101
  C        12.0299774441        0.3552804043       17.6484960639
  H        13.5810151606        1.9288388447       16.3443214511
  H        15.4787103551        2.9609337217       15.1399109927
  H         9.9947518073        2.9005722401       16.4794055053
  H        10.0038605766        3.5304112238       19.0154450602
  H        11.4711077203        2.1826495297       20.4899272255
  H        12.5024201686        0.1475758862       19.6870988241
  H        12.4254030371       -0.5621390831       17.3152628468
  C        10.3933688097        0.1712622820       13.0959297388
  C         9.3173917771       -0.5785788339       12.4180974697
  C         8.2325175672       -1.0841868417       13.1313108039
  C         8.2297612400       -1.0862739593       14.5740369956
  C         9.3837011603       -0.5879433665       15.2936808345
  C        12.4706038752        1.4929937524       13.1111398770
  C        11.4361500710        0.8634910127       12.3820396620
  C        11.3117691169        1.2418334041       10.8890091516
  C        10.4477426471        2.2155556730       10.4118750820
  C        10.4548534511        2.6153963814        9.0747743542
  C        11.3301704887        2.0741863590        8.1311064227
  C        12.1521601522        1.0220845951        8.5819097525
  C        12.1825039166        0.6268247514        9.9321853488
  H        12.8207084558       -0.1781289188       10.2832405410
  H        12.8260187108        0.5419295687        7.8754213475
  H        11.4134733734        2.3442307659        7.1247763654
  H         9.7695688750        3.3984577715        8.7971690670
  H         9.8393888621        2.7156237066       11.1060402469
  C        13.5664752030        2.1851096588       12.5054910260
  C        14.6179755728        2.6193565849       13.2125468812
  H        15.5239006430        3.0785404776       12.7362311989
  H        13.5698999737        2.2802386766       11.4465953017
  C         9.3574386310       -0.9500113362       16.7376799364
  C        10.1732295787       -2.0499044438       17.1452655218
  C        10.1809783780       -2.4587257959       18.5057196187
  C         9.2868304748       -1.7764604354       19.4018775404
  C         8.4498080115       -0.8191923758       18.9309717811
  C         8.4919142030       -0.2930596609       17.6215846610
  H         7.8693739427        0.5231564399       17.2408912307
  H         7.6660803625       -0.4156638258       19.5584179594
  H         9.2247685936       -2.1466597619       20.4231658567
  H        10.9284055657       -3.1682017836       18.8317148033
  H        10.8317065302       -2.4866719578       16.4062526875
  C         7.0760733292       -1.5233202774       15.2575932511
  C         5.9621281435       -1.9374414309       14.5774342933
  C         6.0110178798       -2.0503374044       13.1788782079
  C         7.1040983547       -1.6268826004       12.4681280067
  H         6.9956932659       -1.6128362875       11.3193772217
  H         5.1542664155       -2.3242941932       12.6458127162
  H         5.0791998944       -2.2259012851       15.0919400032
  H         7.0072257017       -1.3474055056       16.3174521585
  C         9.4575378342       -0.8722235856       10.9605722877
  C        10.3204686771       -1.9697389252       10.6404461792
  C        10.1846016539       -2.6874689527        9.4379959238
  C         9.3845155517       -2.0980977385        8.4486293843
  C         8.5212354474       -1.0614184415        8.7246816739
  C         8.5613168426       -0.4498447081        9.9572717857
  H         8.0074452355        0.4831901291       10.0653600531
  H         7.8840287681       -0.6052308966        7.9942092322
  H         9.2459888122       -2.6117843917        7.4884811043
  H        10.8787349180       -3.5008153715        9.1060248395
  H        11.0976019925       -2.2497729709       11.4258733671
