140

  C        10.7401890616        7.0595516991        0.9170853167
  C         9.7100264552        7.8345497199        1.7008680406
  C         8.6763393592        8.3934385830        0.9767668176
  C         7.5476093846        9.0021651665        1.6996231448
  C         6.4865857343        9.5444927359        0.9864936154
  C         9.9940889795        8.1995228478        3.1317389821
  C        11.0914321382        8.9263670584        3.5548549434
  C        11.1272124631        9.3788912432        4.8923963304
  C        10.2558079567        9.0610457950        5.8806804034
  C         9.1505339664        8.3790261966        5.4963371103
  C         8.9677663065        7.9524125053        4.1721649284
  H         7.6266552967        8.9761388249        2.7478343178
  H         5.6082406706        9.8420704188        1.4969842690
  H        11.8522381869        9.2192886313        2.9432369771
  H        12.0321448649       10.0361462304        5.0324726481
  H        10.5246598250        9.3283762286        6.9012196424
  H         8.3675948326        8.1887105906        6.2266402852
  H         8.0526083406        7.4907324991        3.7727627928
  C        10.7117081396        7.0255291487       -0.5708118067
  C        11.7991069834        6.3360503405       -1.2431497406
  C        12.9348161685        5.7858351743       -0.5663248206
  C        12.9648062020        5.8327397611        0.9045161286
  C        11.7935129883        6.3191458991        1.5799421208
  C         8.6541860765        8.3455705929       -0.4769711609
  C         9.7452505692        7.8438733952       -1.2141783553
  C         9.9779916801        8.2784938867       -2.6236630016
  C        10.6265575066        9.4227968096       -2.8344431379
  C        10.4706027143       10.1451350994       -4.0501650548
  C         9.8862043023        9.4903113942       -5.1669576479
  C         9.4460319218        8.2041684058       -4.9762126767
  C         9.3931324294        7.6028830661       -3.7200309783
  H         8.8893368309        6.6807595520       -3.5830821017
  H         8.9824967763        7.7197361281       -5.8213316358
  H         9.7137848731        9.9830763160       -6.0911499247
  H        10.9431662333       11.1087898493       -4.0729660718
  H        11.1827546056        9.8912633926       -2.0332998062
  C         7.6716391153        9.1437125938       -1.1796187875
  C         6.5393443978        9.6100034534       -0.4733107916
  H         5.8278142617       10.2159412816       -1.0031300782
  H         7.9507251426        9.4144228167       -2.1864328377
  C        11.7163940744        5.9505647331        3.0547474902
  C        10.8251234385        4.9630777829        3.3913155392
  C        10.7512200981        4.5266730761        4.7283128039
  C        11.7150973469        4.8762782059        5.6772637538
  C        12.6004213598        5.8897687598        5.3149799337
  C        12.5352221088        6.4818253217        4.0368296513
  H        13.1925853704        7.2961829549        3.7946292895
  H        13.3867121683        6.2192385002        6.0060616539
  H        11.8039391499        4.3981784877        6.6468350425
  H        10.0974631587        3.6804554371        4.9553156392
  H        10.2330561660        4.4295913034        2.6450125678
  C        14.1220805024        5.2064037023        1.5865046167
  C        15.1886435488        4.7682330579        0.8367335127
  C        15.0967538652        4.7232723065       -0.6435952460
  C        14.0304733277        5.2064612189       -1.3013592922
  H        14.0192011719        5.2384669926       -2.3546121949
  H        15.9640700728        4.2164918178       -1.1074583762
  H        16.0230190749        4.2281922300        1.2558114144
  H        14.1975154217        5.1258827096        2.6477012486
  C        11.7335671455        6.0725265007       -2.6768831327
  C        10.9219312826        4.9765987945       -3.1224464037
  C        11.0287146824        4.5794303379       -4.4670268220
  C        11.7617854145        5.2645833258       -5.4104038432
  C        12.4991435700        6.3789948369       -4.9531293047
  C        12.4587141392        6.7656134663       -3.5882760449
  H        13.0048965327        7.6904480077       -3.2843238991
  H        13.0886365351        6.9476316314       -5.6562956552
  H        11.7856065550        4.8335376147       -6.4320641993
  H        10.3944946741        3.6987889576       -4.8181658095
  H        10.1148236382        4.4990354822       -2.5136565390
  C        17.8390777059        7.0980857266        0.8263765941
  C        16.8248264824        7.8352606012        1.5291797803
  C        15.7699210746        8.4908158232        0.8778449385
  C        14.7286827754        9.2874062032        1.4768557795
  C        13.7178181536        9.8149319451        0.6637118133
  C        16.8696543247        8.1827186924        3.0287897513
  C        17.7808206892        9.2423841313        3.2958061469
  C        17.8633167403        9.8865877747        4.5448351919
  C        17.0380881101        9.3571007552        5.5643377667
  C        16.1995503624        8.2326553852        5.2949662159
  C        15.9952829490        7.7298178081        4.0095863820
  H        14.6239777756        9.4222293666        2.5408384708
  H        12.9313863192       10.4315681952        1.1126373039
  H        18.4381764268        9.6095553990        2.4935321772
  H        18.4605415829       10.7852817353        4.6566138265
  H        17.0096456751        9.8085455720        6.5480055409
  H        15.6157219874        7.7198294863        6.0690988317
  H        15.3113699672        6.9222007554        3.8151057849
  C        17.8896369668        7.1014328311       -0.6522044076
  C        18.9043211781        6.3982266610       -1.3036600541
  C        20.0360541746        5.7844231266       -0.5887363141
  C        19.9060326316        5.7062292178        0.8347640008
  C        18.7539534676        6.2719642043        1.4922293329
  C        15.8529226742        8.4357401714       -0.6160117376
  C        16.9093471813        7.8913262853       -1.3342660985
  C        16.9499422914        8.2792957142       -2.7738338039
  C        17.8914613539        9.2496560042       -3.1996798297
  C        17.7342642687        9.9176175292       -4.4170260410
  C        16.8140845449        9.4105871654       -5.3712042073
  C        15.9347824467        8.3638544747       -5.0658509636
  C        15.9974132634        7.8241789453       -3.7763420658
  H        15.3333444357        6.9118026771       -3.5061285316
  H        15.2955558009        8.0291707184       -5.8607594439
  H        16.7006255615       10.0415018706       -6.2643567315
  H        18.4559898274       10.6803489195       -4.7766549543
  H        18.6634246777        9.7147410021       -2.5850733901
  C        14.7885230353        9.0489572406       -1.3468739149
  C        13.7307896015        9.6846443940       -0.7219451569
  H        12.9732145054       10.1217098465       -1.4034191145
  H        14.8249300021        8.8898190193       -2.4181300304
  C        18.6354160633        5.9200517415        2.9675355675
  C        17.8791724362        4.8222053641        3.3432917859
  C        17.8030295275        4.4283513648        4.6543641603
  C        18.4531523894        5.1511053866        5.6313554611
  C        19.4389282008        6.1530441908        5.2968875459
  C        19.3838566323        6.5443744755        3.9559125326
  H        20.0165526312        7.3557771031        3.5996586532
  H        19.8873325362        6.8074336120        6.0424880912
  H        18.4251839612        4.7841186029        6.6380107654
  H        17.1377036827        3.6393791479        5.0184999035
  H        17.3087337376        4.2573701498        2.6034255790
  C        20.9028704326        4.8802203488        1.4655092049
  C        21.9643539675        4.2847851263        0.8510799937
  C        22.1744086128        4.5283783530       -0.5017012517
  C        21.2386378773        5.2822845294       -1.2280357189
  H        21.3478502957        5.4362490091       -2.2920625503
  H        23.0769605049        4.2917633531       -1.0256537737
  H        22.6912508606        3.7216187338        1.4012593219
  H        20.8482319714        4.7328908490        2.5380150414
  C        18.9384273383        6.0824771020       -2.7139475129
  C        18.1441983017        5.0900184264       -3.2695100038
  C        18.3153182166        4.6746196938       -4.6337239022
  C        19.2144563871        5.3247332968       -5.4753122974
  C        19.9794634133        6.4328000305       -4.9169767298
  C        19.8033661144        6.7648050849       -3.5864974450
  H        20.4779764981        7.4723969354       -3.0596101228
  H        20.7508217441        6.9514590859       -5.4928098774
  H        19.2917163226        5.0709386808       -6.5167308293
  H        17.6969556859        3.8865556661       -5.0466646694
  H        17.4343467902        4.6421126890       -2.5568866160
