140

  C         4.5014019216       -1.0245083849       14.1730792163
  C         5.5974103848       -0.2881459094       14.7832548960
  C         6.6519027099        0.2114842209       14.0420887324
  C         7.7751700606        0.9051875949       14.6681147777
  C         8.7303863559        1.5701734520       13.9513164207
  C         5.4694795490        0.1593296249       16.2175983042
  C         4.3997955576        0.9319766483       16.6036553448
  C         4.2731382246        1.2571573770       17.9781664493
  C         5.2014893810        0.7684056861       18.8908335392
  C         6.2854806676       -0.0301620208       18.4627370951
  C         6.4721526162       -0.2989283426       17.1102265151
  H         7.7159697635        1.0838083163       15.7558576653
  H         9.4137674689        2.2293644252       14.4763422219
  H         3.7086954544        1.3814366731       15.9760659317
  H         3.3164536334        1.8027257070       18.3483020967
  H         5.1564081091        0.9360555017       19.9839594078
  H         7.0218283786       -0.3257641016       19.2009717834
  H         7.3186586431       -0.8607088064       16.7977973772
  C         4.5423732694       -1.1401873057       12.7006987948
  C         3.4494548595       -1.7592999977       12.0605164980
  C         2.3726570912       -2.2637532823       12.7616805817
  C         2.4071575933       -2.3297529430       14.2428046706
  C         3.4946696407       -1.7248485847       14.9196974486
  C         6.7847377281        0.0181142452       12.6099283278
  C         5.6826018530       -0.6050519739       11.9640394456
  C         5.6996662401       -0.2682707477       10.4981322830
  C         4.9534921560        0.8172697554       10.0235687727
  C         5.1017431012        1.2407626151        8.6776860233
  C         5.9120708967        0.4957509861        7.7498892328
  C         6.4544904883       -0.6905695785        8.2468303052
  C         6.3475582385       -1.1091604280        9.6204194057
  H         6.7481967919       -2.0198261940       10.0192740669
  H         7.0066594187       -1.3598395566        7.6103359406
  H         6.1074645614        0.7679008345        6.6952654775
  H         4.5186165661        2.1115840835        8.3865372611
  H         4.2097920483        1.3259242036       10.6716318875
  C         7.9589769536        0.5449808169       11.9560242592
  C         8.9439599909        1.1757411139       12.6101019319
  H         9.7834996623        1.4811790324       12.0473960963
  H         8.0241320280        0.3675190683       10.9073651930
  C         3.6922144417       -2.0593852807       16.3936488780
  C         4.6943969465       -2.8981772417       16.8443547957
  C         4.7391707824       -3.4150786478       18.1411646916
  C         3.7885785603       -3.0658979000       19.0691127456
  C         2.7489895923       -2.1835579960       18.7011029760
  C         2.7997663035       -1.6900416762       17.3784115855
  H         2.0178151334       -1.0374038618       16.9985376089
  H         1.9739272622       -1.8794393974       19.3874574375
  H         3.7633475502       -3.4871952619       20.0469238969
  H         5.3334268333       -4.2668288347       18.3668234585
  H         5.5049570673       -3.1983627302       16.1558024892
  C         1.3545794895       -3.0778903082       14.8410252289
  C         0.4313217127       -3.8187496462       14.1419630504
  C         0.4094144005       -3.6891747316       12.7581976616
  C         1.2930193152       -2.9250189816       12.1108561315
  H         1.1546321957       -2.8776316636       11.0329985716
  H        -0.2903362016       -4.2845757694       12.1602219751
  H        -0.2656455854       -4.4914564221       14.6812753216
  H         1.4662462263       -3.3137906752       15.9086404602
  C         3.5115284809       -2.2517105852       10.6832528607
  C         4.4355864919       -3.2922006678       10.5039428536
  C         4.7562982928       -3.8195280503        9.2294091801
  C         4.0957876563       -3.3560597456        8.0892032319
  C         3.1206801768       -2.3442392538        8.2329513462
  C         2.7984492311       -1.8241925539        9.5316427095
  H         2.0466291235       -1.0817700729        9.4750533030
  H         2.6514203923       -2.0119314836        7.3546770538
  H         4.2659753828       -3.7259517532        7.0946882258
  H         5.5298614295       -4.6218419843        9.2321025203
  H         4.9388718088       -3.7716362989       11.3250700913
  C        11.9821238786       -1.1074649785       14.0310902868
  C        13.0554161695       -0.4733104740       14.7220609418
  C        14.0824765045        0.0459602466       13.9671582100
  C        15.1020428596        0.8553830098       14.5533836007
  C        16.2187559225        1.3498164812       13.8716958465
  C        12.8693668669       -0.0317571233       16.1183930452
  C        11.8956749963        1.0012344825       16.2846920072
  C        11.5999240597        1.6272019466       17.5674584297
  C        12.2940469359        1.0710789703       18.6562716032
  C        13.3505091757        0.1711887772       18.4659625561
  C        13.6578080804       -0.3636976999       17.2232215183
  H        15.0405607423        0.8859319798       15.6082737952
  H        16.9039996837        2.0245093092       14.4110580320
  H        11.3360361265        1.3651144616       15.4413077738
  H        10.6572299885        2.1890627875       17.6483862670
  H        12.1259108288        1.3683420510       19.7063317098
  H        14.0100333644       -0.0516678716       19.2889377922
  H        14.5389219524       -0.9922138188       17.0754697157
  C        11.9803126395       -1.0679022832       12.5392888103
  C        10.9000954579       -1.7947825926       11.8960723776
  C         9.8132762026       -2.2733641920       12.6393748876
  C         9.7447018449       -2.1234338375       14.1047926099
  C        10.9073831788       -1.6963260205       14.8031361663
  C        14.1510857893       -0.0469159475       12.5373758418
  C        13.0358265215       -0.4591185449       11.7607184673
  C        12.9634731756       -0.0957542366       10.2798944473
  C        12.0639515148        0.8864197770        9.8083611569
  C        12.1078482086        1.3615339864        8.4777231958
  C        12.9766989827        0.7610022466        7.5158928818
  C        13.9806140601       -0.1075840491        7.9793072874
  C        13.9483782399       -0.5504895519        9.3407809799
  H        14.7487334073       -1.2390439591        9.6468700743
  H        14.7716713753       -0.3254014056        7.3244945566
  H        13.0012006525        1.1216741559        6.5504189964
  H        11.3511841024        2.0932091143        8.1961943566
  H        11.2754102539        1.1747477885       10.5088473147
  C        15.2745347798        0.5471593115       11.8406695283
  C        16.2884917683        1.2689681782       12.4998979414
  H        16.9606928789        1.7521840734       11.8228197630
  H        15.3353711199        0.4978223228       10.7731594846
  C        11.0791289318       -2.1899077050       16.2536485949
  C        11.9827798540       -3.1773587443       16.6105570178
  C        12.0737610077       -3.6681243684       17.9754430483
  C        11.0983285574       -3.2597404139       18.9316608740
  C        10.1817195106       -2.2873062000       18.5213275495
  C        10.1697261198       -1.7926176038       17.2427780819
  H         9.4488210918       -1.0340108044       16.8318912094
  H         9.5120458736       -1.8479830721       19.3043602110
  H        11.1327925710       -3.4351586276       20.0265906971
  H        12.7593511333       -4.5110345301       18.2824951122
  H        12.7560763952       -3.6108179204       15.9614100659
  C         8.6412384981       -2.8437834712       14.7799861271
  C         7.7080461174       -3.5695234383       14.1256787892
  C         7.7332994203       -3.6845959623       12.6985736883
  C         8.7665582005       -3.1142263372       11.9864064078
  H         8.8283344165       -3.4449986416       10.9912538493
  H         7.0395825803       -4.4371577633       12.3416702133
  H         6.9245504114       -4.0687206188       14.7231190311
  H         8.6119073422       -2.9293790326       15.8693175192
  C        11.0853136546       -2.2705443716       10.4646982233
  C        12.0855924551       -3.1930537812       10.1684892368
  C        12.3810924562       -3.6605284182        8.8305631162
  C        11.6365725556       -3.1715204432        7.7331716723
  C        10.5523687272       -2.3509556875        8.0665638755
  C        10.2605857661       -1.9571931759        9.3606987351
  H         9.4940837696       -1.2446437870        9.4631603279
  H         9.9132934047       -2.1454989584        7.2048191823
  H        11.8686533355       -3.5132724437        6.7227918748
  H        13.0782984733       -4.5022221316        8.8061840861
  H        12.7856939864       -3.5909413423       10.9459233132
