140

  C         4.1831007256       -0.9149194954       14.0530531957
  C         5.1904981032       -0.2522286198       14.7931040751
  C         6.3047608215        0.4288688788       14.1640292419
  C         7.2479070330        1.1848550520       14.9401522061
  C         8.3372155854        1.8433199903       14.4436566592
  C         5.0198285998       -0.0102448386       16.2365207535
  C         4.1637999713        1.0187272908       16.7066676936
  C         4.2163467668        1.4629429185       18.0111793466
  C         5.0575858879        0.7488886610       18.9474857640
  C         5.8323941451       -0.4047047971       18.5573637708
  C         5.8620982636       -0.6616613463       17.1782434257
  H         7.0665605916        1.3647464126       16.0181917363
  H         8.9720634041        2.3581624514       15.1148759122
  H         3.5545205986        1.5126744022       15.8512023803
  H         3.6397701239        2.3756885553       18.3384135471
  H         5.0591126018        1.0247384629       19.9986866109
  H         6.4208411280       -0.8859438760       19.3281194801
  H         6.6590592914       -1.3783972575       16.8556171302
  C         4.2372170212       -0.7406128694       12.5698327605
  C         3.2634904912       -1.4346194414       11.8645892533
  C         2.2643068227       -2.1730614398       12.5431227771
  C         2.1673532250       -2.2790398178       13.9924349533
  C         3.2152707634       -1.7716060594       14.7356508989
  C         6.4975096889        0.5588948496       12.7236067917
  C         5.3479431535       -0.0038945837       11.9860176639
  C         5.2310509712        0.3904438461       10.5359109911
  C         4.3990024881        1.4876859499       10.0740683851
  C         4.2626791491        1.8045622213        8.7159237084
  C         5.1460980140        1.2943099585        7.7762754260
  C         5.9556588256        0.1707337209        8.1681832519
  C         6.0181288536       -0.2624369385        9.5722081391
  H         6.6800816280       -1.0461438324        9.9683052415
  H         6.4060366460       -0.3047375752        7.3312252606
  H         5.0840140316        1.5839586703        6.6871018749
  H         3.4770531452        2.4859473161        8.4182112888
  H         3.7234101886        2.0290419819       10.7444061654
  C         7.6043761430        1.3435918356       12.1971445236
  C         8.5669054118        1.8392706894       13.0657413042
  H         9.4514520637        2.1992274581       12.6253186637
  H         7.6670426831        1.4141338001       11.0947385397
  C         3.3480197070       -2.1299933625       16.2322750946
  C         4.1556143338       -3.2244828445       16.6250391356
  C         4.0471734342       -3.6745358679       17.9275986763
  C         3.2205197678       -3.0983708836       18.8631393392
  C         2.4212422754       -1.9890978822       18.5136468649
  C         2.4177387036       -1.5805785456       17.1517037517
  H         1.7116210756       -0.8260355414       16.9008319012
  H         1.7940375409       -1.5234443187       19.2856961167
  H         3.2945927396       -3.4804068956       19.9037813901
  H         4.7202749938       -4.4731271029       18.2139062128
  H         4.9751745045       -3.6401407777       15.9313556853
  C         1.0368160884       -2.9428354472       14.5680911915
  C         0.0750876780       -3.5539492324       13.8640246622
  C         0.2215376553       -3.5623048588       12.4564201406
  C         1.2875863097       -2.9328194274       11.8373484196
  H         1.4491954535       -2.9099977892       10.7942351410
  H        -0.5804804222       -3.9634361256       11.8317766719
  H        -0.7331038641       -4.0835698914       14.3907076895
  H         1.0461423472       -2.9807103948       15.6548792370
  C         3.3971340749       -1.7703603633       10.4000271551
  C         4.1375056614       -2.8580394934        9.9994474804
  C         4.2875158447       -3.3035127586        8.6742357284
  C         3.5503443517       -2.5905040988        7.7052385890
  C         2.6921805167       -1.4735262590        8.1405432240
  C         2.6816251390       -1.0511492084        9.4391185416
  H         2.0184929404       -0.2281091387        9.6946442537
  H         2.0285500162       -1.0303351421        7.4260782974
  H         3.6599958561       -2.8048551419        6.6486361310
  H         4.8350042017       -4.1644939585        8.3481179639
  H         4.7259181018       -3.4014032829       10.7825888385
  C        11.3386694934       -0.7980284931       13.9985250521
  C        12.4520270846       -0.2717543440       14.7353627075
  C        13.4908197428        0.3974609490       14.0083123361
  C        14.5852483625        0.9710572492       14.6570751006
  C        15.6222541861        1.6072521751       13.9938440777
  C        12.4008778290        0.0194548425       16.2047269846
  C        11.4909303240        0.9847027924       16.7222544630
  C        11.4757184490        1.3396505053       18.0305737124
  C        12.4562118850        0.8603304905       18.9454845061
  C        13.4124668008       -0.0539927293       18.4550354351
  C        13.3992829487       -0.4982514707       17.1276457277
  H        14.5138611617        0.9819732626       15.7794199440
  H        16.3826909461        2.1119454595       14.5301042391
  H        10.7137731066        1.3967691845       16.0573739906
  H        10.6046876855        1.9262243399       18.3478028084
  H        12.4045245040        1.2082129365       19.9829397833
  H        14.1380664496       -0.3779034700       19.2483297674
  H        13.9758991324       -1.2991880979       16.8156049673
  C        11.2720449402       -0.7097828454       12.5469762359
  C        10.2591402264       -1.4029351638       11.8484238730
  C         9.1709409175       -1.9987759656       12.5502532483
  C         9.2633646576       -2.0596456146       14.0079971382
  C        10.3499764070       -1.5193476681       14.7410451020
  C        13.4798076024        0.4655003121       12.5454282054
  C        12.3737224463       -0.0181859136       11.8533990338
  C        12.4572030876        0.2000270317       10.3422419342
  C        11.8408333928        1.3204418253        9.7411018114
  C        12.1620106673        1.6956671430        8.4272343962
  C        13.1247136654        0.9732403220        7.7317926528
  C        13.6477848422       -0.2634129422        8.2674388829
  C        13.3308661644       -0.5947867988        9.5616213516
  H        13.7858454864       -1.4483150945       10.0677731000
  H        14.3658356265       -0.8663269263        7.7335299420
  H        13.2698841011        1.3294558057        6.7005317230
  H        11.8924842642        2.6495412046        8.0256118354
  H        11.0618900421        1.9183220543       10.3164117849
  C        14.6501965438        1.0329348457       11.8828352735
  C        15.6122278356        1.6690073709       12.5920635120
  H        16.4637032429        2.1314861519       12.0970038286
  H        14.6578161991        1.1091776728       10.7888694402
  C        10.4589370814       -1.9300948274       16.1815437045
  C        11.2509789683       -3.0326835227       16.5020734286
  C        11.5221688523       -3.4997386321       17.7866953171
  C        10.7678070663       -2.9884818284       18.8536888981
  C         9.7832079785       -2.0240859363       18.5903005237
  C         9.6366560846       -1.4774002929       17.2784115861
  H         8.8896157711       -0.6901143083       17.0232666544
  H         9.1039411609       -1.6902062782       19.3942264236
  H        10.8857155401       -3.3707123197       19.8719650132
  H        12.3665704463       -4.1701204224       17.9370954227
  H        11.8511323613       -3.4316448758       15.6421448990
  C         8.2397764264       -2.8394187274       14.6871982152
  C         7.1565519991       -3.4501870626       14.0744473072
  C         7.0328613335       -3.3326828404       12.6555648517
  C         7.9474856087       -2.5893376956       11.9530604347
  H         7.8925455554       -2.4008424278       10.8754279533
  H         6.2309991706       -3.8901829935       12.1299704909
  H         6.3586723010       -3.9967603962       14.6145256696
  H         8.1938934609       -2.7499590543       15.7734531255
  C        10.3788447065       -1.7127568971       10.3564309220
  C        11.1973306507       -2.8400495145       10.0561217363
  C        11.1718719816       -3.3186355753        8.7153015625
  C        10.4178108426       -2.7275576103        7.7500752630
  C         9.7194004170       -1.5430079904        8.0328970682
  C         9.6580576643       -1.0283007257        9.3268688455
  H         9.0410603776       -0.1580795190        9.5857222996
  H         9.2722820579       -1.1057356871        7.1785543597
  H        10.5246097470       -3.1364487270        6.7307473053
  H        11.7641099700       -4.1613008068        8.3431438134
  H        11.9228937490       -3.2609156753       10.7749446204
