140

  C         2.8580977061        0.3159750741       14.6203809926
  C         3.8196252587        1.0858960763       15.3386327841
  C         4.9192755848        1.6288487222       14.6873000462
  C         5.7864269159        2.5188234607       15.4027116989
  C         6.6929853286        3.2929935176       14.7659433574
  C         3.7483302816        1.3881920573       16.8059117207
  C         2.9865769519        2.4682253930       17.2006784757
  C         3.0534053704        2.9917627882       18.5283783478
  C         3.9754234774        2.3880620823       19.3663629028
  C         4.6896700136        1.2101075047       18.9903818122
  C         4.6066168783        0.7271165472       17.6824626825
  H         5.6628137120        2.6920427264       16.4519327730
  H         7.2091560111        4.0885633498       15.2192984459
  H         2.3157285320        2.9648898202       16.5089536456
  H         2.4089766252        3.8342626730       18.7498489253
  H         4.1870157504        2.6804084359       20.3557179434
  H         5.3419360161        0.9269457053       19.8247771756
  H         5.2092313209       -0.0773504244       17.2915614169
  C         2.8698374807        0.3627243310       13.1101313658
  C         1.9494465819       -0.4933621788       12.4113471536
  C         0.9531538151       -1.1634303367       13.1078004475
  C         0.8913478047       -1.1545348763       14.5432202223
  C         1.8710943847       -0.4530365750       15.3675054674
  C         4.9468750066        1.7187031236       13.2274410433
  C         3.9477970372        1.0638905366       12.4909333908
  C         3.7638523242        1.4042279521       11.0674266325
  C         2.7977229869        2.3318763570       10.6728673373
  C         2.5560635921        2.6295478100        9.3366303567
  C         3.2959027550        2.0003073176        8.3234632331
  C         4.3436643135        1.1461645455        8.7214223631
  C         4.5606489809        0.7970684842       10.0677412439
  H         5.3107767354        0.0652514329       10.3253950371
  H         5.0717955070        0.6579322241        7.9981207345
  H         3.1227472314        2.1771381024        7.2228246572
  H         1.7929559711        3.3411654457        9.1492066046
  H         2.1218391683        2.8364945149       11.3677482728
  C         6.0319556451        2.5669764438       12.5849559978
  C         6.8944504566        3.2804722985       13.3546678319
  H         7.6459214465        3.8941296065       12.8871196928
  H         6.0928413961        2.6883120345       11.4785394757
  C         1.8384781053       -0.6800495708       16.8722795958
  C         2.5874671085       -1.6666470648       17.4629549702
  C         2.4471333872       -2.0909130274       18.7458165704
  C         1.4930525279       -1.4739186537       19.5360233699
  C         0.6589403999       -0.5244940501       18.9788220288
  C         0.8665049940       -0.1097853358       17.6977982585
  H         0.0234734920        0.4456902078       17.3281891861
  H        -0.1267494934       -0.2321561504       19.6328060030
  H         1.2921244830       -1.8261543860       20.5579724973
  H         3.0036156179       -2.9850320976       19.1195900238
  H         3.2968034472       -2.2501975620       16.7838413258
  C        -0.3433966881       -1.7237910974       15.1623574913
  C        -1.2910948523       -2.3484922859       14.4196408900
  C        -1.1861051256       -2.3683486736       13.0293222510
  C        -0.0667632311       -1.9257210050       12.4260065182
  H         0.1809208631       -2.0907990705       11.3711925166
  H        -1.8938551300       -3.0075708376       12.4498565642
  H        -2.1110218386       -2.9269830187       14.8948141130
  H        -0.4683585274       -1.7974589698       16.2695648520
  C         2.0055527618       -0.7638123027       10.9270670750
  C         2.9671328231       -1.7576227032       10.5606731058
  C         2.8995043126       -2.2243031109        9.2628401117
  C         1.9839664671       -1.7176114566        8.3341218398
  C         1.0493400000       -0.7276746260        8.6899558009
  C         0.9834871858       -0.3591958623       10.0130386419
  H         0.1833750837        0.3332010864       10.3911486651
  H         0.3329209750       -0.2512077753        7.9743520947
  H         2.0432095429       -2.1671253517        7.3554590164
  H         3.6370512941       -2.9424893852        8.9687767082
  H         3.6587127823       -2.1405115745       11.3249582717
  C         9.9768379790        0.5659629274       14.6340198796
  C        11.0251378387        1.3363204278       15.2693004880
  C        12.0858484073        1.8752565956       14.5740440123
  C        13.2247676888        2.4085312443       15.1768929294
  C        14.2095930621        2.9835565277       14.4513792176
  C        10.9669767635        1.7041325615       16.7173184483
  C        10.1668622296        2.7051739272       17.2204905776
  C        10.0171826778        2.9904493141       18.6294858653
  C        10.9810199459        2.3967167571       19.4489358584
  C        11.7907690604        1.3969738237       18.9069531424
  C        11.7590833649        1.0569672704       17.6038259091
  H        13.3171394795        2.5749777768       16.2458257839
  H        15.0874419073        3.3790061231       14.9294769946
  H         9.5018806939        3.2730134114       16.5771125776
  H         9.3317346974        3.8042261519       18.9331944584
  H        10.9766795483        2.5646538254       20.5254684754
  H        12.4276908935        0.8596488079       19.5899512400
  H        12.2818046558        0.1956261684       17.2274912466
  C         9.9702609435        0.5644220325       13.1828336838
  C         8.8886206973       -0.2061150661       12.5458542940
  C         7.7928247499       -0.6488140176       13.3255759467
  C         7.9123204448       -0.7482849784       14.7574137586
  C         9.0197232086       -0.0701255967       15.4238411653
  C        12.0460244871        1.7863770874       13.1442844591
  C        11.0186185508        1.1124545151       12.4655867428
  C        10.9557045246        1.4243383667       11.0401401813
  C        10.2253674367        2.6210136661       10.6206896949
  C        10.1333691220        2.8911802314        9.2596556184
  C        10.9415893762        2.2840853193        8.3959978747
  C        11.5838471023        1.0768170461        8.7636133210
  C        11.5089410502        0.5570886559       10.0244442260
  H        12.0797901461       -0.3447065681       10.3997603251
  H        12.1682402413        0.5886896168        7.9768281651
  H        10.9936031233        2.5233006525        7.3643497172
  H         9.4789372315        3.7310798729        9.0029004416
  H         9.7111175748        3.2407795229       11.3611880041
  C        13.1726385673        2.3308025089       12.3741864930
  C        14.2271725335        2.9017805831       13.0403933970
  H        15.1455062417        3.2566770127       12.5643467740
  H        12.9951163711        2.2964454643       11.3180528230
  C         9.0662924340       -0.3974041935       16.9224355677
  C         9.7185662767       -1.5046337765       17.3603306491
  C         9.6416624408       -1.9720743781       18.6455187916
  C         8.7908616339       -1.3877541244       19.5433616140
  C         7.9725310645       -0.3005902983       19.0786016551
  C         8.1185838977        0.2417773226       17.8082608666
  H         7.5610298175        1.1223285285       17.5357925350
  H         7.2353066049        0.1213947602       19.7594762364
  H         8.8666028627       -1.5876820511       20.5872625005
  H        10.3038295501       -2.7481441951       18.8756605520
  H        10.3119395200       -2.1216066128       16.6651039659
  C         6.9553132413       -1.6337684757       15.4534336318
  C         5.8778415183       -2.0818749260       14.7663089621
  C         5.6738937786       -1.8041526752       13.3843242977
  C         6.6522152582       -1.2302486488       12.6066260791
  H         6.4863512086       -1.0037082092       11.5425979423
  H         4.7943279005       -2.2058412432       12.8551959746
  H         5.1284894989       -2.7752366300       15.1620157966
  H         7.1724956873       -1.8398972221       16.4964738652
  C         8.8626359619       -0.5291190846       11.0355085184
  C         9.3940221553       -1.7892485132       10.6650507881
  C         9.2659800454       -2.2658356326        9.3073788405
  C         8.7404862051       -1.4390491603        8.3106904108
  C         8.1510165450       -0.2311225950        8.6590508860
  C         8.2711004978        0.2385042742       10.0243939925
  H         7.9219036198        1.2678359179       10.2585084758
  H         7.6532633539        0.4632173541        7.9626216895
  H         8.7177195288       -1.7492221622        7.2797098107
  H         9.6935148046       -3.2089808753        8.9968870672
  H         9.9783018604       -2.3440457252       11.4196971832
