140

  C        12.0026680295        7.1287542889        2.5522372717
  C        11.0021326915        7.8184292660        3.2132110072
  C         9.8287052940        8.3418740192        2.6484644629
  C         8.7695731893        8.9109451237        3.4334535426
  C         7.6981151201        9.4693722741        2.8123628976
  C        11.1075375170        8.2661895637        4.6741332052
  C        11.9147632195        9.3471401423        5.0822787257
  C        11.7659648315        9.7905070356        6.4518697605
  C        10.8686014317        9.1615466910        7.3300727882
  C        10.1678142751        8.0671835736        6.8695017199
  C        10.3045124682        7.5816996724        5.5981920099
  H         8.7366587736        8.9805531880        4.5580243933
  H         6.9347676162        9.9354199293        3.4553256809
  H        12.3698177269        9.8770275869        4.2329489188
  H        12.3541679415       10.6421620927        6.7192147293
  H        10.6662528137        9.5299661870        8.2965915162
  H         9.4374775439        7.4621282022        7.4912794280
  H         9.8303810220        6.6638815495        5.3379415387
  C        11.8740696764        7.0905890489        1.1051387908
  C        12.7749007625        6.3019582467        0.2975815425
  C        13.8816054240        5.6625255583        0.9283533079
  C        14.0389718151        5.8103475757        2.3344535237
  C        13.0619695727        6.4047644121        3.1507481874
  C         9.7325752951        8.3303826670        1.1749001195
  C        10.7834459182        7.8292953304        0.4326218108
  C        10.8016607628        8.3108464406       -1.0303741439
  C        11.6202265347        9.3803927416       -1.3328824145
  C        11.6186558484        9.7981513880       -2.6909258314
  C        10.7044614922        9.2861842821       -3.6437156101
  C         9.8415653639        8.2692912048       -3.2212674893
  C         9.8968909917        7.7449591082       -1.9494005471
  H         9.1525148886        6.9549442165       -1.6414289963
  H         9.1587367033        7.8177247229       -3.9548578981
  H        10.5642430102        9.6799417586       -4.6391113145
  H        12.3514184248       10.5168977045       -2.9908680413
  H        12.3579658779        9.7319132083       -0.6352276835
  C         8.5844710569        8.9222170955        0.6248076474
  C         7.5867657854        9.4619340181        1.3845509955
  H         6.7095573483        9.8241846000        0.8868607915
  H         8.4601222661        8.8973000025       -0.4714587058
  C        13.0573332145        5.9136094570        4.5594953190
  C        12.3742159545        4.7850404321        4.9312653972
  C        12.3844177051        4.3608377625        6.2392008228
  C        12.9618168894        5.1536391328        7.2427762257
  C        13.6844781993        6.3274093268        6.8785114479
  C        13.7871162416        6.6316615529        5.5212648173
  H        14.4433805148        7.4751335003        5.2827178164
  H        14.1815745403        6.8450271537        7.6262433531
  H        12.8162661062        4.8856546347        8.2798870716
  H        11.8434441407        3.4510495937        6.5618590075
  H        11.8624905062        4.2489474258        4.1580339546
  C        15.1746368184        5.1881816948        2.9397152757
  C        16.1159116308        4.5260772230        2.1262168929
  C        15.8717790481        4.3157586129        0.7358083840
  C        14.8030726823        4.8936991054        0.1177783703
  H        14.6383701394        4.7551956323       -0.9546168252
  H        16.6858105622        3.7767350014        0.2071296847
  H        17.0291689257        4.0919367603        2.4849336717
  H        15.5292605165        5.5365660873        3.9405250497
  C        12.6245637606        6.1089194267       -1.1742810261
  C        11.7082990549        5.1470488466       -1.6214487973
  C        11.8363123319        4.6777814408       -2.9464295152
  C        12.7032694947        5.3617531343       -3.8206181518
  C        13.4932152295        6.4432006744       -3.3997286050
  C        13.4130998779        6.7790632717       -2.0534069297
  H        14.0128382486        7.6780916303       -1.7957459359
  H        14.0402630522        6.9966692965       -4.1820902625
  H        12.6954027918        5.1308733970       -4.8785956849
  H        11.1372850093        3.9972871008       -3.3914424628
  H        11.1560952649        4.5564084527       -0.9567149977
  C        19.0225238268        7.2789816723        2.4362041844
  C        18.0044250466        8.0098763434        3.1464499555
  C        16.9864016589        8.6114379371        2.4003240708
  C        15.9489194990        9.2923412964        3.0677107791
  C        14.9151473733        9.9492598379        2.4520328739
  C        17.9811953956        8.2369680056        4.6545204531
  C        18.4608474946        9.5311973657        5.0734458193
  C        18.3437610844        9.8652623048        6.4231880243
  C        17.7457541769        8.9476922120        7.3194081904
  C        17.2896869637        7.6749627414        6.9136445202
  C        17.3709978936        7.3092692311        5.5669764499
  H        15.9154725418        9.2928215132        4.1479759544
  H        14.1174900298       10.4884684325        3.0736695100
  H        18.8522063385       10.2392234422        4.3060906766
  H        18.7559947883       10.8304218871        6.7443721966
  H        17.7560588803        9.3130426620        8.3434155336
  H        16.6271242091        7.0761291482        7.5371004341
  H        17.0838368633        6.3461267120        5.1448093699
  C        18.9550803053        7.2087498936        0.9479263005
  C        19.9775248348        6.4779798295        0.2573460029
  C        21.0473510241        5.8453707882        1.0095903508
  C        21.1556842270        5.9742203139        2.4207080460
  C        20.1024217437        6.6249984119        3.1747596077
  C        16.9311532247        8.5947703476        0.9620870555
  C        18.0263508267        8.0520032935        0.2143254510
  C        18.0979849226        8.3870672937       -1.2436486786
  C        19.0583493190        9.2130356297       -1.7796620739
  C        18.8894230220        9.6931720650       -3.1043216129
  C        17.8493304088        9.3432269945       -3.9431373865
  C        16.8286177702        8.6207258367       -3.3698206666
  C        17.0063250351        8.1116328013       -2.0685104326
  H        16.1717573479        7.5217088736       -1.5968766676
  H        15.9715820107        8.2968806715       -3.9662426766
  H        17.9116140192        9.6140790872       -4.9974592453
  H        19.6344593989       10.3374449726       -3.5665390909
  H        19.8906328701        9.5599629724       -1.1667009419
  C        15.9072281278        9.4019922261        0.3174184569
  C        14.9325026053        9.9837257900        1.0438151160
  H        14.1191349774       10.5312261944        0.5070813522
  H        15.9296387575        9.5084472299       -0.7754389652
  C        20.1172877163        6.3352935624        4.6834510759
  C        20.0020812429        5.0746433593        5.1599676345
  C        19.9857459984        4.8350567715        6.5673391308
  C        20.5064383341        5.8604358476        7.4166211983
  C        20.6359416538        7.1960047375        6.8648544438
  C        20.4482976724        7.4058109945        5.5278245401
  H        20.7141049422        8.3746892298        5.1217972901
  H        20.9776790141        7.9800386394        7.5655597414
  H        20.6950481514        5.7044176597        8.4782678815
  H        19.7887626855        3.8411190160        6.9644530824
  H        19.8007863689        4.2322695335        4.4832627395
  C        22.1714567647        5.3524541582        3.1331028866
  C        23.0487995437        4.5070084113        2.4811029865
  C        23.0023210298        4.4220087551        1.0785207444
  C        22.0877643919        5.0851080546        0.3695202261
  H        22.2306540440        5.0917001400       -0.7486708314
  H        23.8105086998        3.8390330187        0.6141934425
  H        23.7531218991        3.8637342287        3.0099467075
  H        22.3010302366        5.5595394028        4.1691305267
  C        19.8034638133        6.0349949842       -1.0594066912
  C        18.7624882479        5.0003254725       -1.3065633314
  C        18.6106100756        4.4200566881       -2.5780137347
  C        19.4321286793        4.8382424698       -3.6293545632
  C        20.4321092946        5.7602080315       -3.4232666193
  C        20.5645440954        6.3689543221       -2.1774750043
  H        21.3601817821        7.1001457614       -2.1000341060
  H        20.9425231347        6.0119276405       -4.3103944339
  H        19.3951882897        4.4343484052       -4.6357337655
  H        17.9068765440        3.6240875080       -2.7649073188
  H        18.1298908549        4.7236357380       -0.4436270943
