140

  C         2.1580163368        0.6259095577       14.7544145495
  C         3.2594825672        1.2954541358       15.3844776916
  C         4.3396869575        1.8079544041       14.6201162443
  C         5.5298493760        2.3881087341       15.1873972640
  C         6.4841741580        3.0802564714       14.4598752167
  C         3.2673025515        1.6597342732       16.8652768174
  C         2.5544402471        2.8102482605       17.2368751074
  C         2.6030458498        3.2760657160       18.5726491972
  C         3.4384732544        2.6761912196       19.5073483106
  C         4.1792822627        1.5369946065       19.0984489814
  C         4.1694530364        1.1387032332       17.7891190170
  H         5.7138858645        2.3568482759       16.2473403936
  H         7.4039218348        3.3838167983       14.9202294376
  H         1.9008783533        3.3099969207       16.5648459617
  H         1.9987048475        4.1300271653       18.9024730465
  H         3.4813778210        2.9736188663       20.5286346889
  H         4.7103632276        1.0455133447       19.8663573515
  H         4.7927927397        0.3172504801       17.4113489846
  C         2.2228708951        0.6470135082       13.3049485039
  C         1.1050078115       -0.0355386413       12.6972674316
  C         0.0673597845       -0.6446408085       13.3894210224
  C         0.0282124517       -0.6321279031       14.8892558294
  C         1.0900688502        0.0160861089       15.4933498023
  C         4.3092769110        1.9375084527       13.1340702364
  C         3.1629665196        1.3294431196       12.5024757187
  C         3.0373757618        1.6571631534       10.9884732787
  C         2.3087126347        2.8014415708       10.6610002511
  C         2.2381273369        3.2292747282        9.3678343944
  C         3.0206137527        2.6398187482        8.3445166574
  C         3.8202507795        1.5683682431        8.6832088130
  C         3.8378629908        1.1054232189       10.0400668275
  H         4.4731125039        0.2927181344       10.3860654860
  H         4.6643795655        1.2317971925        7.9849648436
  H         3.0391763596        2.9873559921        7.2945723601
  H         1.8305616709        4.1579509981        9.0991570394
  H         1.7528292154        3.2791674285       11.5007010076
  C         5.2918363446        2.6312992487       12.3940644320
  C         6.3526276530        3.1869284923       13.0766459685
  H         7.2325273806        3.6525331219       12.5618971599
  H         5.2240805719        2.6777768770       11.2660059868
  C         1.2381425334       -0.3280107791       16.9437006063
  C         2.0629940513       -1.3563185220       17.4568815399
  C         1.9178651609       -1.8212643503       18.8005159143
  C         1.1426405236       -1.1626176559       19.7443371504
  C         0.2984263545       -0.1210667341       19.2259799047
  C         0.2797888999        0.2174324464       17.8406057133
  H        -0.2854910319        1.0904175780       17.5212935423
  H        -0.2734649435        0.4974877084       19.9461318591
  H         1.1034902311       -1.2426997503       20.8492277195
  H         2.5803311253       -2.6779620702       19.1370750714
  H         2.8604915818       -1.7964820166       16.8646137758
  C        -0.9889608930       -1.3639673229       15.6348858430
  C        -1.9360577536       -2.0355797394       14.9206550573
  C        -2.0098950175       -1.8974856980       13.5111684789
  C        -1.1149792159       -1.2418865762       12.7729769315
  H        -1.2513676618       -1.3023457069       11.6804403924
  H        -2.9075851238       -2.2132841999       13.0148254561
  H        -2.6361326404       -2.7000282291       15.4758810104
  H        -0.9560887476       -1.3494200515       16.6912108619
  C         1.3095080631       -0.3249885328       11.2017773241
  C         2.1023621274       -1.5234386797       10.8909573864
  C         2.2468906857       -2.1048575701        9.6330777289
  C         1.6018526048       -1.4402480739        8.5638446159
  C         0.8358943451       -0.3368646629        8.8285459265
  C         0.6929442479        0.2515087535       10.1224975990
  H        -0.0766743068        1.0508937736       10.2705949490
  H         0.2666060499        0.1785773979        8.0075245112
  H         1.6531783509       -1.7966578603        7.5649816300
  H         2.8881566310       -2.9301599832        9.5206306351
  H         2.6310542539       -2.1164668384       11.6413162746
  C         9.4993187947        0.4538747172       14.7859609396
  C        10.5877922741        1.1431318742       15.4779241328
  C        11.7771389919        1.4921984086       14.8376572639
  C        12.9941495077        2.1678602804       15.4132034608
  C        14.1001243061        2.6552278312       14.7184254311
  C        10.5483629410        1.6222585468       16.9788381922
  C         9.8032275189        2.7619488611       17.2640832895
  C         9.7922969414        3.2416066465       18.6354018763
  C        10.4124686389        2.5657000683       19.6706084153
  C        11.1283253817        1.3929778117       19.3186548158
  C        11.2464759766        0.9274401598       18.0059898743
  H        12.8706410225        2.2013317348       16.5076258904
  H        14.9007324163        3.1166516627       15.2326165302
  H         9.2666423375        3.3157263423       16.4818481513
  H         9.0478879568        4.0265876917       18.8734566670
  H        10.3031845409        2.7663951401       20.7172379383
  H        11.7023015457        0.8496817742       20.0606225952
  H        11.9150747466        0.0677219522       17.7447028839
  C         9.5676891826        0.4447034344       13.2976348877
  C         8.4283189210       -0.0783328547       12.5296756175
  C         7.4064794286       -0.6442016896       13.2592061139
  C         7.4747772052       -0.6895392019       14.7049880571
  C         8.5335513157       -0.2477388212       15.4812160358
  C        11.7381848876        1.6099536972       13.3679830643
  C        10.6069232007        1.0730026459       12.6428082757
  C        10.7032225091        1.3542246762       11.1570617069
  C        10.1104165182        2.4582133826       10.5398147266
  C        10.3585307104        2.7629030678        9.2235168673
  C        11.1708422716        1.9091837539        8.4320542032
  C        11.7431460444        0.7696668842        9.0520220271
  C        11.5685791817        0.5489528387       10.4752011596
  H        12.0512032376       -0.2746845637       10.9532848756
  H        12.3730443048        0.1078035635        8.4897363438
  H        11.4018745168        2.1050384319        7.4264182711
  H        10.0821259642        3.6893841340        8.8005640069
  H         9.5109707385        3.0816170270       11.1951968283
  C        12.7989260038        2.3226169719       12.6735711213
  C        13.9688436663        2.7629204671       13.3094617114
  H        14.7968539497        3.2291081450       12.7422125809
  H        12.7321933676        2.3710597834       11.5731389858
  C         8.6109612377       -0.6504554707       16.9433474548
  C         9.5044694305       -1.6133080289       17.4152981533
  C         9.5031663866       -2.0940725676       18.7416667862
  C         8.5570181500       -1.5487959686       19.6242732047
  C         7.6774493383       -0.5671668309       19.1240630752
  C         7.7226821770       -0.0414824182       17.8229110771
  H         6.9732300803        0.6973291912       17.5046899176
  H         6.9636826633       -0.1570159803       19.8434953720
  H         8.4724542079       -1.8457838710       20.6306035923
  H        10.2405888494       -2.7195815871       19.1914972751
  H        10.3050613718       -2.1296759804       16.8105709645
  C         6.3761469247       -1.3357213940       15.3444574114
  C         5.3018919514       -1.8480159305       14.6415900306
  C         5.2014428510       -1.6725947370       13.2307898356
  C         6.2064208877       -1.0435765270       12.6078477652
  H         6.1337776689       -0.7879320522       11.5594947347
  H         4.1989483415       -1.7966013123       12.8447594790
  H         4.4626982971       -2.1755868728       15.2737073070
  H         6.2835130863       -1.4390818038       16.3866523939
  C         8.4411311632       -0.4158557078       11.1070356150
  C         9.1421394852       -1.5362667079       10.7872838417
  C         9.1127151340       -2.0317850443        9.4571718359
  C         8.2099656093       -1.5005065264        8.5155613961
  C         7.4174765360       -0.3813135012        8.8789277792
  C         7.6291960269        0.1820573219       10.1516209008
  H         7.0299240310        1.0980701005       10.4117865070
  H         6.8086500036        0.2270339101        8.1869286069
  H         8.0961144348       -1.9822649167        7.5629201656
  H         9.8233505450       -2.8372963224        9.2522721839
  H         9.8383971378       -2.0039819644       11.5133268946
