140

  C         3.4526876418        0.3779649431       14.5396024049
  C         4.5246903193        1.0243703519       15.2854162199
  C         5.6814632026        1.4728708146       14.6175131874
  C         6.8977842654        1.8826485959       15.3479994816
  C         8.0316500227        2.2322128639       14.7182683483
  C         4.2867270587        1.4662747117       16.7185400732
  C         3.4303614929        2.5738203181       16.8619420775
  C         3.1742691535        3.1345948291       18.0661261017
  C         3.9058467194        2.7133000521       19.1872652214
  C         4.8672441722        1.7319788193       19.0445112676
  C         5.0827784360        1.0685214141       17.8270653911
  H         6.9376040283        1.7248724578       16.4077123414
  H         8.9342079465        2.2738946502       15.2991764282
  H         2.7755670915        2.8450735772       16.0308018561
  H         2.4488019793        3.9973453423       18.1721569750
  H         3.6847795247        2.9810854704       20.2059494129
  H         5.4394327344        1.4492429747       19.9147192013
  H         5.8052165968        0.2365199419       17.8301313065
  C         3.5340002223        0.3634910013       13.0073289532
  C         2.5277638055       -0.3624604969       12.2577546494
  C         1.4490615162       -0.9309852199       12.9266307320
  C         1.4321946465       -0.9489070135       14.4272731279
  C         2.5565439248       -0.5063059817       15.1827948744
  C         5.7186071491        1.5140696949       13.1852408122
  C         4.6155114922        1.0993885134       12.4517505814
  C         4.6144592861        1.4087620138       10.9450687900
  C         3.8135242877        2.4843529068       10.4880098496
  C         3.6253787716        2.6772320125        9.0929137466
  C         4.4040309699        1.8544209466        8.1465882345
  C         5.2785563465        0.8615585148        8.6990367386
  C         5.3764139819        0.6495179819       10.0942301082
  H         6.0986711197       -0.0570930809       10.4497198565
  H         5.9350951791        0.2431920513        8.0422263287
  H         4.1471959877        1.8781553665        7.0649885128
  H         2.9880814246        3.4710660228        8.6591295435
  H         3.2202613275        3.0334567477       11.2371368151
  C         6.9866954320        2.0812098290       12.6142516583
  C         8.1086221076        2.4110470865       13.3170423907
  H         9.0597760731        2.6568977647       12.8981380321
  H         7.0458425572        2.2011681623       11.5429257795
  C         2.6375154517       -0.9211767915       16.6196306104
  C         3.6052740861       -1.8392880138       17.0226108819
  C         3.7083867020       -2.1615529461       18.3615576755
  C         2.8716067578       -1.6559348386       19.3475911142
  C         1.9029335616       -0.7429566553       18.8974694588
  C         1.7981102137       -0.3200180231       17.5779293256
  H         1.1322978113        0.4674097175       17.3289394704
  H         1.2330678270       -0.2078888460       19.6472432134
  H         2.9660931924       -2.0675712480       20.3154952007
  H         4.3388851384       -3.0203601166       18.5411987083
  H         4.2098716111       -2.3900696328       16.3086544088
  C         0.2380904090       -1.5600186419       14.9910860407
  C        -0.8085130602       -2.1311574321       14.2677393726
  C        -0.6636800321       -2.2428170334       12.8611678259
  C         0.3594535129       -1.4801073114       12.2513979572
  H         0.3975271799       -1.5592688288       11.1859457495
  H        -1.3168360060       -2.9028778778       12.2287825419
  H        -1.5814309637       -2.5739248820       14.8538281011
  H         0.1966369753       -1.5772845434       16.0361398801
  C         2.7742681013       -0.7646048071       10.8173797542
  C         3.7091218302       -1.7883521503       10.5665873874
  C         3.8124554974       -2.3147640068        9.2873673049
  C         2.9864270319       -1.7889879411        8.2615710045
  C         2.0426314163       -0.7919449126        8.5424520276
  C         1.9522999821       -0.2728767135        9.8477009049
  H         1.1132066586        0.4313515646        9.9666334100
  H         1.3536733040       -0.4646568750        7.7116426331
  H         3.1263135650       -2.1847836841        7.2661303100
  H         4.5995703357       -3.0259837400        9.0997990690
  H         4.2161963161       -2.3382829176       11.3357584552
  C        10.6587158172        0.0513438159       14.7031153829
  C        11.5580694175        0.9049664206       15.4369253206
  C        12.6757641707        1.4865172849       14.7187180172
  C        13.7059713759        2.1991606149       15.4001023179
  C        14.7405713819        2.8313091172       14.7214799372
  C        11.5955293068        1.1160244557       16.9558109044
  C        10.9786696472        2.2026524298       17.5580327001
  C        11.2415569516        2.6269353231       18.8733474117
  C        12.0607768135        1.8889130819       19.7193410488
  C        12.6996215416        0.7915024239       19.1553058419
  C        12.5117137327        0.4605151999       17.8358420795
  H        13.4877607024        2.5396068407       16.4465908465
  H        15.4539861028        3.5365684207       15.2291249665
  H        10.4667473410        2.8682024982       16.8493827552
  H        10.7383778959        3.5589157034       19.1607893979
  H        12.2134824212        2.1632337415       20.7531609325
  H        13.4773209073        0.3361635228       19.7366452307
  H        13.1385205591       -0.3903790493       17.5517744625
  C        10.6841477738        0.0271856179       13.2161379851
  C         9.6160674776       -0.6629778132       12.5370840566
  C         8.4984121902       -1.1879738437       13.2691436929
  C         8.5906901018       -1.2397835819       14.7032112029
  C         9.5768137699       -0.6166068652       15.4644675727
  C        12.7769977122        1.3330038861       13.2558931661
  C        11.6625570304        0.7410031947       12.5156040933
  C        11.7073922881        1.0259072195       10.9861326040
  C        11.0547961146        2.1864364986       10.4707410158
  C        11.1568692160        2.5820345624        9.1346817900
  C        12.0285879289        1.8721644547        8.3119530565
  C        12.7284664152        0.7408955591        8.8273357950
  C        12.6118457369        0.3307952521       10.1711601853
  H        13.0656057475       -0.5306669582       10.6109305200
  H        13.4775445324        0.2691983890        8.1573239311
  H        12.1845057175        2.2124401053        7.2548556162
  H        10.8007813228        3.5194373874        8.8254881050
  H        10.4826748702        2.8778088792       11.1514603152
  C        13.8793772454        1.9046216767       12.6078353680
  C        14.8652770589        2.5632291538       13.3330909481
  H        15.7216629237        3.0673749691       12.8601095603
  H        14.0382492055        1.8028380413       11.5308838972
  C         9.5118938643       -1.0978907181       16.9075600203
  C        10.2396304193       -2.2502665450       17.3157055053
  C        10.0303318860       -2.7236625394       18.6539373690
  C         9.2441730808       -2.0651350941       19.5728547456
  C         8.5686724378       -0.9087758751       19.2431596561
  C         8.7276125751       -0.4521621872       17.9180450332
  H         8.1978026404        0.4527892814       17.6100801450
  H         7.9262019719       -0.4281959735       19.9626002994
  H         9.1154428097       -2.4434283119       20.5595145789
  H        10.4949383152       -3.6967424199       18.9332065140
  H        10.8515956052       -2.7739433147       16.5898981537
  C         7.6018539187       -2.0860258277       15.3122810628
  C         6.6527857927       -2.7787864637       14.5910061375
  C         6.5244167565       -2.6193322224       13.2176128834
  C         7.4143462431       -1.8359162913       12.5685000274
  H         7.1907189130       -1.5887896763       11.5366070472
  H         5.6237264899       -3.0718585375       12.7854679772
  H         5.8959468412       -3.3053569534       15.1721896593
  H         7.5723824643       -2.2074540451       16.3685499017
  C         9.6530542385       -0.9510305141       11.0431954460
  C        10.3746346501       -2.0606486043       10.5437149299
  C        10.5210479251       -2.3058773211        9.1799518235
  C         9.9295691947       -1.4257930294        8.2966695608
  C         9.2808458578       -0.2564708676        8.7425636250
  C         9.0726097479       -0.0666692536       10.1032268377
  H         8.4403587992        0.7665198621       10.4567752228
  H         8.9306176600        0.5054527470        8.0482979165
  H        10.0353264470       -1.6010152558        7.2142984108
  H        11.3139666242       -2.9598075275        8.8285252537
  H        10.9037455661       -2.7065350200       11.2286277285
