140

  C         4.6544430702       -1.4335927450       13.8174936781
  C         5.7582927460       -0.8369163542       14.4200329459
  C         6.7114960843       -0.1130836264       13.7003155621
  C         7.8462081749        0.6002613809       14.3239138025
  C         8.8639996314        1.1795494525       13.5843953503
  C         5.6958272183       -0.5387160652       15.9131103657
  C         4.9699646395        0.5994381980       16.2920960400
  C         4.9609528609        1.0557571764       17.6323267359
  C         5.5970260792        0.2415456557       18.5970928431
  C         6.4372460783       -0.7621880858       18.1529791879
  C         6.4954420706       -1.1519867130       16.8483590415
  H         7.9794753086        0.5721963295       15.3793846716
  H         9.6577642100        1.7185942323       14.0572928004
  H         4.5227489956        1.1161160673       15.4882098316
  H         4.4918777155        1.9539440327       17.9366860597
  H         5.4343673244        0.3473309649       19.6947165647
  H         7.0157382179       -1.3989847234       18.8918001312
  H         7.1444307046       -1.9885643244       16.5509306900
  C         4.5733690658       -1.3971324604       12.2839267493
  C         3.4189760747       -1.9904740484       11.6809414650
  C         2.4000852748       -2.5303257751       12.4165186746
  C         2.4870273647       -2.6241187054       13.8938961172
  C         3.5887321990       -2.0887768602       14.5628582628
  C         6.6254394663       -0.0218411277       12.2094155529
  C         5.5390719202       -0.6273703729       11.5489516604
  C         5.3168037592       -0.1615421173       10.1369319476
  C         4.5139162321        0.9673744703        9.9307324900
  C         4.4674100975        1.5790255434        8.6811900032
  C         5.1614457869        1.0923955314        7.6083484259
  C         6.0924635985        0.0563538973        7.8365327061
  C         6.1537831905       -0.5670879459        9.0990814543
  H         6.8023291223       -1.4029366032        9.3168529800
  H         6.6541748935       -0.2507774089        6.9377068906
  H         5.0067227184        1.4978122182        6.6706115291
  H         3.7680982030        2.4204618628        8.5275781564
  H         3.9257842990        1.3817532376       10.7518513978
  C         7.6459447532        0.6631399138       11.4985703314
  C         8.7350078254        1.2406173143       12.1367144644
  H         9.5739840534        1.7025969186       11.6153098607
  H         7.5375121267        0.8864170471       10.4435818107
  C         3.6914120560       -2.4819707121       15.9958431145
  C         4.4548063992       -3.6972522170       16.2267751130
  C         4.3888899648       -4.2971598980       17.5644926694
  C         3.8007359784       -3.5608818333       18.6221573117
  C         2.9654353002       -2.4748679791       18.3506843057
  C         2.8742929416       -1.9766967543       17.0465334284
  H         2.3239153019       -1.0096220185       16.8382812683
  H         2.5136573089       -1.9195418645       19.1892154784
  H         3.7804044016       -3.8797778123       19.6682096328
  H         4.9454026470       -5.1575593503       17.8800899724
  H         4.8823833548       -4.1950988049       15.4096847939
  C         1.3827480686       -3.1928831271       14.6943154520
  C         0.3291486022       -3.7909272533       14.0913391905
  C         0.3666876081       -3.9140140935       12.6737367422
  C         1.2440212779       -3.2040274666       11.9060847466
  H         1.0575505940       -3.2839877018       10.8282041831
  H        -0.3386020930       -4.6052797950       12.2342971317
  H        -0.6171958865       -4.1290210987       14.5935532630
  H         1.4955410432       -3.1703790348       15.7873891932
  C         3.4576020000       -2.1654359291       10.1847289998
  C         4.2718480305       -3.1813375543        9.6541396647
  C         4.1855758640       -3.4977677917        8.2624495027
  C         3.1977960525       -2.8631863689        7.4793892384
  C         2.3693304789       -1.8869447085        8.0271640261
  C         2.5700985950       -1.4910518015        9.3639599633
  H         1.9139588559       -0.6459223655        9.6114866546
  H         1.5747287274       -1.4727739441        7.4338432788
  H         3.0835811398       -3.2142778252        6.4447630907
  H         4.7873353216       -4.3174732784        7.9141662460
  H         4.9408634526       -3.8385572413       10.3027494226
  C        11.8089971675       -1.0328094204       13.9110979272
  C        12.8314385044       -0.2985577838       14.6728161244
  C        13.9537746916        0.1901092413       13.9942118807
  C        15.1931789380        0.5643834243       14.7363514296
  C        16.2262704227        1.1700938013       14.0418635614
  C        12.6530795394        0.1278765224       16.1150279423
  C        11.5817323304        0.9580239849       16.4445307352
  C        11.2824892317        1.3921415664       17.7618952490
  C        12.1723923857        0.9602211485       18.8782857986
  C        13.2526893037        0.1082989203       18.5378359033
  C        13.3735913019       -0.3678534286       17.2439605945
  H        15.2328962347        0.4365169276       15.8145833119
  H        17.0581887789        1.4769764387       14.5958157585
  H        10.8491864278        1.0990752642       15.6229364740
  H        10.3497579789        1.9363975751       17.9720740999
  H        12.1564775984        1.4469569285       19.8398194021
  H        14.0552539712       -0.1023161697       19.2558366395
  H        14.1835317169       -1.1004027107       17.0308510342
  C        11.7717534431       -0.9584752151       12.4139378832
  C        10.7160734643       -1.6127572015       11.6823370557
  C         9.7202730509       -2.2912619278       12.4341034410
  C         9.7868826776       -2.3868680976       13.8830527266
  C        10.8785795002       -1.8037662031       14.6711846611
  C        13.9067419361        0.3243293669       12.5725670843
  C        12.8049508997       -0.1759529033       11.8126266455
  C        12.8036170274        0.1492739265       10.3339286494
  C        12.0443941863        1.1919168727        9.9300996085
  C        12.0164476488        1.6396352568        8.5727935840
  C        12.7713958240        0.9054318360        7.6905692313
  C        13.6855898059       -0.0876814790        8.1019276380
  C        13.6674839771       -0.5159064284        9.4276125040
  H        14.4057044171       -1.1860204914        9.8642261795
  H        14.2419792295       -0.6288617283        7.3854208886
  H        12.7814595809        1.1395736992        6.5998514701
  H        11.4338229821        2.5073446686        8.3644872169
  H        11.2359852259        1.5958434953       10.5983375908
  C        14.9731355538        1.0449640231       11.9543035418
  C        16.0922412126        1.4789372293       12.6978903945
  H        16.8039330384        2.0542054693       12.1333562785
  H        14.8788030102        1.3505458683       10.9386706978
  C        10.9996950306       -2.2378891024       16.1124548352
  C        11.9205378239       -3.2219309319       16.3970082891
  C        12.0719749910       -3.7217100935       17.7579844331
  C        11.2344006037       -3.2128939108       18.7269293868
  C        10.2849158245       -2.2658582333       18.4381291535
  C        10.2328464002       -1.7031561415       17.1371182583
  H         9.5409458198       -0.9109386995       16.9969012433
  H         9.5087700790       -1.9835499454       19.1128315935
  H        11.3934225885       -3.6024233803       19.7379761099
  H        12.8778178629       -4.4256621163       18.0380751566
  H        12.5210696249       -3.5485263686       15.5876814734
  C         8.7148774445       -3.1256902295       14.5484338772
  C         7.7058693146       -3.7900772684       13.9087906652
  C         7.7066798224       -3.6621416497       12.4756693692
  C         8.6632724279       -2.9678955615       11.8126288621
  H         8.5308639493       -2.9155927185       10.7630451854
  H         7.0401891288       -4.2024800562       11.8442008173
  H         6.8604220453       -4.3193744269       14.3919651639
  H         8.6435156310       -3.0402555658       15.6310647116
  C        10.7262087002       -1.8840103594       10.1739714719
  C        11.6719244936       -2.7428254143        9.6840979002
  C        11.7340187187       -3.1487417820        8.3411306105
  C        10.6991228644       -2.7379591270        7.4548345825
  C         9.6184840062       -1.9802559803        7.9940465034
  C         9.6653568308       -1.5270105510        9.3221535343
  H         8.9515318778       -0.8120326381        9.7443241790
  H         8.7893912756       -1.5197353884        7.3923668020
  H        10.7235871479       -3.0282837637        6.4023465228
  H        12.5217020735       -3.8279634728        8.0633258330
  H        12.5055847539       -3.1411428930       10.2165356053
