140

  C        11.3685155888        7.2824032181        1.7503454014
  C        10.2188725957        7.8442657849        2.5125027220
  C         9.1262626434        8.3683608929        1.8041418412
  C         7.9730043234        8.8809158061        2.4459302649
  C         6.8724543343        9.4847892890        1.7710729394
  C        10.3033411541        8.1458989215        3.9554552024
  C        10.8238875012        9.2983251703        4.4588406348
  C        10.7492868721        9.7140961175        5.8363981199
  C        10.0402486213        8.9653451095        6.7764634151
  C         9.4983939631        7.7396213278        6.2848064064
  C         9.6102273421        7.3641290321        4.9253239728
  H         7.8917365104        8.7906535355        3.5562733108
  H         5.9612045846        9.7777462818        2.3117126548
  H        11.2627900195        9.9094341888        3.7223915622
  H        11.1061210417       10.6951144714        6.0316499324
  H         9.9826777522        9.2713326358        7.7932461281
  H         8.7850679716        7.2022697700        6.9087771792
  H         9.1285852167        6.4446799692        4.7259171394
  C        11.2783038475        7.3793666646        0.2826033041
  C        12.2636482995        6.6301793595       -0.4716461768
  C        13.3304486774        5.9959286152        0.2048186081
  C        13.4646111804        6.0620096547        1.6221545885
  C        12.3850587843        6.5567086518        2.3448166964
  C         9.1472292057        8.4810701012        0.3831202008
  C        10.2522646309        8.0982048457       -0.3538780051
  C        10.2482332917        8.4335553138       -1.7464744728
  C        11.1918305928        9.3130685292       -2.2516231627
  C        11.1837972920        9.6413425857       -3.5825711878
  C        10.0994105955        9.2421083385       -4.3970050060
  C         9.1918954568        8.2828450339       -3.9682906722
  C         9.2631750370        7.8680985254       -2.5899564699
  H         8.6773624145        7.0378917660       -2.2650849746
  H         8.4701866545        7.8865347192       -4.6756171657
  H        10.1136505147        9.6916624971       -5.4806922331
  H        11.8876259923       10.3717253449       -4.0580771632
  H        11.9852019963        9.6884320781       -1.6068228013
  C         8.0980602271        9.2346033676       -0.2661773796
  C         6.9567672506        9.6789237187        0.3318008106
  H         6.1536938454       10.1840139387       -0.2766394511
  H         8.1513071487        9.3920470252       -1.3083616515
  C        12.2413023423        6.2017674819        3.7623211311
  C        11.5834412771        4.9908784600        3.9829089306
  C        11.3025844101        4.5881786432        5.2953878869
  C        11.9796681895        5.2671936790        6.3745150077
  C        12.7882194100        6.3624439289        6.1111612164
  C        12.7519729706        6.9360547047        4.8777976565
  H        13.2139469000        7.9032813971        4.7766164745
  H        13.2397806199        6.8800536174        6.9355406852
  H        11.7977632912        4.9337220024        7.3775649528
  H        10.8005518254        3.6482437358        5.5250204169
  H        11.1333932475        4.4324574496        3.1570576738
  C        14.5867735285        5.4369084501        2.2512153302
  C        15.5147432176        4.7135918654        1.5310388149
  C        15.3487130435        4.5751231634        0.1913615295
  C        14.3654901738        5.2517345594       -0.5389665444
  H        14.2536127188        5.1987960946       -1.6304858694
  H        16.0144097435        3.9145150666       -0.3604546851
  H        16.3374830531        4.2996228028        2.0576329234
  H        14.7022741273        5.6475329439        3.2895222962
  C        12.1733150727        6.2868877193       -1.9455789580
  C        11.3169479583        5.2663958675       -2.2829289653
  C        11.2581967453        4.7255977071       -3.5109709129
  C        12.0699714567        5.2560995583       -4.5018581677
  C        12.9447823706        6.3655954324       -4.2208604199
  C        12.9912191133        6.8558712197       -2.9055536624
  H        13.7438704351        7.6525765329       -2.6369588312
  H        13.5626093670        6.6735297604       -5.0092803034
  H        12.0611921732        4.8608511942       -5.5248868224
  H        10.5749101094        3.8908189311       -3.6885209670
  H        10.7531300504        4.8344675745       -1.4685374184
  C        18.0360627470        7.2111115807        2.0988589220
  C        17.0160504248        8.0203468631        2.6765314485
  C        15.9676493435        8.5775430168        1.8275103795
  C        14.8301246457        9.3220025226        2.3291694246
  C        13.8456617615        9.7932722041        1.5277402281
  C        17.0980649644        8.4899225658        4.1184911913
  C        18.1003359051        9.4736322487        4.4317007788
  C        18.0364416874        9.9591362754        5.7630047815
  C        17.1080835431        9.4941085959        6.6643699208
  C        16.2586664712        8.4210577079        6.3699635986
  C        16.2341823313        7.9541809801        5.0564176234
  H        14.8033245464        9.4832713641        3.3886170249
  H        12.9694062270       10.3118610189        1.8968072545
  H        18.8716248869        9.7076721783        3.7398964101
  H        18.7047532759       10.7468116881        6.0732318805
  H        17.0383100675        9.9377988570        7.6374722121
  H        15.6686164328        8.0243238286        7.1747002799
  H        15.4720780361        7.2654965041        4.7013708457
  C        18.1489838784        7.1261010112        0.6472736622
  C        19.1899118469        6.4356280020       -0.0136138672
  C        20.3119682974        5.9161951351        0.8197557980
  C        20.0416502355        5.7637384979        2.2149506724
  C        18.9271314499        6.3917508703        2.8226490560
  C        16.0710350482        8.4996369713        0.3748231834
  C        17.1676541632        7.8326137724       -0.1262734363
  C        17.2344658567        8.1061342028       -1.6521417952
  C        18.0252214737        9.1744655935       -1.9911189227
  C        18.0732904987        9.5553370278       -3.3234737154
  C        17.3083293422        8.9244801964       -4.3079698213
  C        16.6815403177        7.6690891256       -3.9797385193
  C        16.6088364220        7.3301554592       -2.6483574259
  H        16.2117995646        6.3550284557       -2.3272482690
  H        16.1539911467        7.0216901905       -4.6551222647
  H        17.3932443205        9.2618153053       -5.2618807837
  H        18.6113578659       10.4763586360       -3.5481945400
  H        18.6393155416        9.5930198118       -1.2250960329
  C        15.0742777129        9.1106205490       -0.4389497719
  C        14.0111098685        9.7624935094        0.0963194100
  H        13.2311789813       10.2498163994       -0.4798646382
  H        15.1150661210        8.9950520401       -1.5230310006
  C        18.8308867129        5.9801159476        4.2952906580
  C        18.2055867607        4.7700793046        4.7384661064
  C        18.3899883444        4.3029469636        6.0748929096
  C        19.3519902994        4.9141425020        6.8962826291
  C        20.1237579093        5.9559996956        6.3755441621
  C        19.8154457230        6.5296129868        5.1394877394
  H        20.3888670403        7.4190040245        4.7908619209
  H        20.9946054249        6.2862275277        7.0081300174
  H        19.6212763182        4.3378444283        7.8260828937
  H        17.8067932376        3.4084199567        6.3288319786
  H        17.6056311868        4.2503645674        3.9960486196
  C        20.9653787597        4.9512432445        3.0241137043
  C        22.0505119217        4.3362872946        2.4343126993
  C        22.2786585271        4.4420521705        1.0548978443
  C        21.4418687998        5.2627140277        0.3223827306
  H        21.6565731327        5.4184267461       -0.6933208127
  H        23.1160451777        3.8409153842        0.6132941585
  H        22.6400058706        3.6119814916        2.9320354964
  H        20.8126011975        4.7543891064        4.0647201436
  C        19.2344760142        6.1776323269       -1.4809386457
  C        18.5049499988        5.0348599510       -1.9725557710
  C        18.4303991795        4.7043488620       -3.3244358699
  C        19.1172200774        5.4767967139       -4.2234411930
  C        19.8565453193        6.5230519701       -3.8048509450
  C        19.9412316438        6.9277135535       -2.4658728826
  H        20.5079078770        7.8689416414       -2.2656677993
  H        20.3641241674        7.1100699160       -4.5516785834
  H        18.9988936917        5.2601653378       -5.3125409202
  H        17.6838876396        3.9218834919       -3.5569052221
  H        17.9340764439        4.4373340638       -1.2233139203
