140

  C         3.3632701166        0.0127230810       14.5132049146
  C         4.4902386826        0.6804046445       15.1637070269
  C         5.4442784974        1.3926051438       14.3676862796
  C         6.6537982292        1.8889275082       14.9819939239
  C         7.6579027049        2.4793473911       14.2111023069
  C         4.4403208723        0.9630379456       16.6319724014
  C         3.7372521854        2.0946784042       17.1635755374
  C         3.8961421765        2.4781688409       18.5273624129
  C         4.7405327096        1.7518898983       19.3665112336
  C         5.3395897876        0.5560534939       18.8884468898
  C         5.1326510664        0.1783835066       17.5587842916
  H         6.8580819514        1.6616743561       16.0264347928
  H         8.5930550442        2.7284341057       14.7257527068
  H         3.1718153418        2.6792061771       16.4565717186
  H         3.3401746782        3.3376086232       18.9284186075
  H         4.9404166035        1.9675023507       20.3970703273
  H         5.9773243260       -0.0396464425       19.4966114923
  H         5.4417602807       -0.8440841746       17.2071398435
  C         3.2711477304        0.1848376752       12.9876723168
  C         2.2286940690       -0.5392070844       12.3146777284
  C         1.1648407206       -1.2222333111       13.0005431409
  C         1.1630300018       -1.2081896425       14.4798475150
  C         2.2807882779       -0.6645922458       15.1908712939
  C         5.3862916651        1.4961124425       12.9511393716
  C         4.3058771346        0.8631540793       12.2261814866
  C         4.2970139506        1.2050471293       10.8064611941
  C         3.5671145940        2.3578262908       10.4001007649
  C         3.7813637145        2.7392818647        9.0674363522
  C         4.5624393519        1.9748560686        8.1657465121
  C         5.2378677101        0.8740614776        8.6213460840
  C         5.0924507973        0.4999293277        9.9388917367
  H         5.5740524862       -0.3573318096       10.3833383332
  H         5.8588291662        0.3087114107        7.9520556215
  H         4.5362205201        2.1509425602        7.1258378885
  H         3.3422511040        3.6686369504        8.7031593362
  H         3.0772487097        2.9738242089       11.1316250498
  C         6.4372601435        2.2629617943       12.2055492298
  C         7.5514662572        2.7307034923       12.7874860334
  H         8.3177716804        3.3849248020       12.2647227700
  H         6.3648933331        2.3032957580       11.1580618898
  C         2.4116092701       -1.1183664986       16.6508149485
  C         3.1131813374       -2.2772469232       16.9768050891
  C         3.2765251348       -2.7690710168       18.2151618262
  C         2.5223031805       -2.1034705627       19.2531848544
  C         1.8030667160       -0.9150262271       19.0369721447
  C         1.7567236760       -0.4206732428       17.7001386550
  H         1.2101646699        0.5031129942       17.4915339029
  H         1.3372628335       -0.4915953724       19.8737486937
  H         2.6460885740       -2.5171046483       20.2785867220
  H         3.8264548598       -3.7143743646       18.4147059137
  H         3.4920820918       -2.7659041087       16.0864801831
  C         0.1005221019       -1.8326867975       15.1900301102
  C        -0.9175681541       -2.4877135341       14.5205361334
  C        -1.0230165023       -2.4096580541       13.1339565232
  C         0.0097572385       -1.7775493427       12.4127618735
  H        -0.0386117872       -1.7146654889       11.3349372892
  H        -1.8470185860       -2.9565659617       12.6340207824
  H        -1.7255177818       -3.0747673774       14.9738719913
  H         0.3299153673       -2.1320812212       16.2231458592
  C         2.1958117861       -0.8463361309       10.8398521879
  C         2.8713750528       -2.0433341682       10.4820841766
  C         2.8562507183       -2.3663285180        9.1286250817
  C         2.0560683916       -1.6299665163        8.1819913959
  C         1.3831276526       -0.4783630647        8.5358086842
  C         1.4098666123       -0.1432977229        9.9234989605
  H         0.9614913051        0.7702449217       10.3571190515
  H         0.6824984281        0.0054046667        7.8440300408
  H         1.9629814000       -2.0228062826        7.0886667506
  H         3.3297178803       -3.3056493233        8.7812516660
  H         3.3936448304       -2.6801815464       11.1558612813
  C        10.5377792662        0.1249922830       14.7893301197
  C        11.5353941890        0.8366139023       15.5581450307
  C        12.6621474083        1.4054149568       14.9710055586
  C        13.7597893716        1.9992155606       15.7586918621
  C        14.7920845507        2.5518857954       15.0953553926
  C        11.5009867716        1.0501039286       17.0147901754
  C        10.8014875140        2.1434074783       17.4330234490
  C        10.8826688870        2.5697776944       18.7808029616
  C        11.7442619582        1.9333879511       19.6694581532
  C        12.4168462803        0.7573700767       19.2428405298
  C        12.2567556458        0.3338863312       17.9217614757
  H        13.7906887532        2.0369773473       16.8349537170
  H        15.6127794196        3.0473456083       15.5930617296
  H        10.2656801361        2.7910282829       16.7310775966
  H        10.2938510245        3.3914023399       19.1582215343
  H        11.8994006789        2.2270977916       20.7463019419
  H        13.0470303034        0.1825681952       19.8997478640
  H        12.7225920279       -0.5776276135       17.6107062583
  C        10.6020921512        0.3056540619       13.3043862101
  C         9.5103316410       -0.3098775517       12.6006810032
  C         8.4062410843       -0.9760786989       13.2050724996
  C         8.3540933859       -1.1219024209       14.6407579128
  C         9.4592900855       -0.6867727755       15.3841004210
  C        12.7551159278        1.5010595530       13.5205456786
  C        11.7122003739        0.9450698305       12.7155893704
  C        11.5592560227        1.3440173997       11.3708906505
  C        10.6586600944        2.4037209746       11.0633978316
  C        10.4096395042        2.7642264086        9.7831972973
  C        11.1349571826        2.0587507479        8.7625132084
  C        12.1450886658        1.1393134871        9.0322757683
  C        12.3423978342        0.7795196125       10.3979244639
  H        13.0524704956        0.0423761658       10.6493839119
  H        12.7293258257        0.7170493080        8.2058461084
  H        10.8620294236        2.2808554531        7.6847060286
  H         9.7672939513        3.5929204752        9.5759481345
  H        10.1701086008        2.8637222494       11.8982705857
  C        13.9306574987        2.0251947719       12.8960733790
  C        14.8829458380        2.5669370164       13.6772785272
  H        15.6752470151        3.1791784317       13.2799742929
  H        13.9410372150        2.2092644987       11.8198449238
  C         9.5948100771       -1.1355676803       16.7697854866
  C        10.2811350064       -2.2408894925       17.1669807134
  C        10.2660086173       -2.5685463294       18.5641334617
  C         9.4197848067       -1.9271955235       19.4165072760
  C         8.6939475011       -0.7297716160       18.9892604968
  C         8.8514809287       -0.3402692262       17.6581121165
  H         8.3405411279        0.5685070927       17.2960007746
  H         8.2598023307       -0.1065455485       19.7590500992
  H         9.3908006647       -2.1856192561       20.4985276819
  H        10.8679934826       -3.3645979879       18.9527624915
  H        10.7867505529       -2.8212388722       16.3917286704
  C         7.2227291120       -1.6849213361       15.3104716639
  C         6.1589283646       -2.1576087352       14.5261438107
  C         6.3217642092       -2.2560457805       13.1354884242
  C         7.3999808518       -1.6981579647       12.4986116142
  H         7.5065096269       -1.7266532346       11.3869156586
  H         5.5326547500       -2.7484120212       12.5028253234
  H         5.3043488628       -2.4728163068       15.0594484107
  H         7.0343825980       -1.6655277678       16.3918815224
  C         9.4893422237       -0.6792218473       11.1268035665
  C        10.3675101638       -1.7031295021       10.6861586105
  C        10.3553961508       -2.2114671474        9.4060402763
  C         9.4131293180       -1.6930956405        8.4701962834
  C         8.5228302204       -0.7048863399        8.8650151278
  C         8.6790616572       -0.1049933075       10.1425005223
  H         8.1143804925        0.8046922553       10.3077734676
  H         7.8974839741       -0.0319799625        8.2331982704
  H         9.4309251111       -2.1018252365        7.4338197485
  H        11.0521555109       -2.9920364460        9.1055468791
  H        10.9957188840       -2.1404425555       11.4517491355
