140

  C         2.0366924436        0.6192860802       14.7344441704
  C         3.0638279158        1.3877586065       15.3650734405
  C         4.1430854986        2.0146334633       14.6310840457
  C         5.2476596578        2.7168921636       15.2262961347
  C         6.1968828279        3.3149156409       14.5064991337
  C         3.0208513835        1.6621284728       16.8446684501
  C         2.2377064243        2.7680326462       17.3089996503
  C         2.1678441717        3.1213925289       18.6774893801
  C         2.9969797433        2.4802615155       19.5680100000
  C         3.8089429684        1.4089407610       19.1933071294
  C         3.8491018389        1.0047300673       17.8299087912
  H         5.2578630400        2.6756868083       16.2871199764
  H         6.9451476076        3.8558887130       15.0318263220
  H         1.6249423358        3.3128182776       16.6031513078
  H         1.4287892930        3.8746070770       18.9774126556
  H         2.9491671030        2.7478426488       20.6143345754
  H         4.4955436859        1.0274518260       19.9279845545
  H         4.4688614013        0.1152670836       17.5476548734
  C         1.9848431825        0.7104140830       13.2688334636
  C         0.9641390403        0.0443403225       12.5547768959
  C        -0.0425488597       -0.5290149778       13.2944673466
  C        -0.1124419034       -0.4070997203       14.7782841938
  C         0.9345945815        0.0983693346       15.5022239116
  C         4.0214606587        2.0983059721       13.2090859193
  C         2.9352154144        1.5116119902       12.5599746417
  C         2.8158626431        1.8273245284       11.1050243835
  C         2.0997493888        2.9848058431       10.7354479578
  C         2.1163574905        3.3710549081        9.3716238865
  C         3.0300020326        2.8089670275        8.5003304457
  C         3.7152388046        1.6629880705        8.9087778886
  C         3.5216678351        1.1071157176       10.1815896112
  H         4.0681313153        0.2178979712       10.5137099461
  H         4.3529909854        1.0492269091        8.2411773549
  H         3.1508775786        3.0641925737        7.4275312930
  H         1.5087013736        4.2532478756        9.0643716256
  H         1.4858119873        3.5243986448       11.4958345741
  C         4.9646756902        2.8713333972       12.4559383323
  C         6.0694435443        3.4707946005       13.1040802186
  H         6.7483283188        4.1694602437       12.6247322041
  H         4.8584377573        2.9281079282       11.3924851503
  C         1.0685552208       -0.2568308743       16.9558782435
  C         1.7656831037       -1.4134144205       17.2983723713
  C         1.7514421754       -1.8055248183       18.6226682147
  C         0.9325513028       -1.1368572195       19.5532420268
  C         0.2586120208        0.0229061112       19.2579728008
  C         0.2829287479        0.4227194490       17.9416877002
  H        -0.2227420428        1.3586521074       17.8290973625
  H        -0.2809373451        0.5871990083       19.9805606466
  H         0.7360774048       -1.4921252587       20.5934366557
  H         2.2588787810       -2.7218100124       18.9946650925
  H         2.3019770527       -1.9314223489       16.5263129776
  C        -1.2792930236       -0.9779642888       15.4480096518
  C        -2.4168593179       -1.4805660714       14.8362124485
  C        -2.3444236329       -1.4768935486       13.3845239069
  C        -1.2495914432       -1.0322053669       12.6781552976
  H        -1.3972977849       -1.0820152633       11.6182666418
  H        -3.3310433462       -1.6616464659       12.9685715111
  H        -3.1482172846       -2.0468473216       15.3996205222
  H        -1.2717107957       -1.0856690349       16.4933264262
  C         1.0509119404       -0.3794364879       11.0663352783
  C         1.8910611044       -1.4626015631       10.7257462021
  C         1.8381020984       -1.9096749327        9.3841448646
  C         1.1106576367       -1.1855564774        8.4035623270
  C         0.4070582270       -0.0379864026        8.6757607661
  C         0.3715910902        0.3015705031       10.0732638912
  H        -0.2059436917        1.1678909506       10.4117260247
  H        -0.2818807432        0.4215185616        7.9075218708
  H         1.0386242754       -1.5655327685        7.3969778065
  H         2.3476247449       -2.8833883384        9.0831271359
  H         2.4948208245       -1.9069516134       11.5292695222
  C         9.2778073497        0.8625572447       14.8589573014
  C        10.3823524519        1.4955895633       15.5911039170
  C        11.5144214653        2.0247426892       14.9006166551
  C        12.5845528536        2.6949725586       15.5956088554
  C        13.5025595402        3.4234164823       14.8515166419
  C        10.3943913921        1.7202438685       17.0736703985
  C         9.4524297052        2.6841749960       17.5664401346
  C         9.4531677903        3.1538342332       18.8705527280
  C        10.3987281127        2.6648722942       19.7666001874
  C        11.3864786979        1.6830626071       19.3147124422
  C        11.3734853185        1.2092323525       17.9612720022
  H        12.6569225154        2.6693632130       16.6770163125
  H        14.3228164327        3.9675961289       15.3337845589
  H         8.7664301689        3.1156600497       16.8619386561
  H         8.7434524976        3.9088224291       19.0156613331
  H        10.4550721889        3.0045861725       20.7688787785
  H        12.2334552520        1.3310998276       20.0025749316
  H        12.1645718465        0.5725357798       17.6328386069
  C         9.2995800736        0.8790550416       13.3763612289
  C         8.2591834409        0.2576295560       12.6794986508
  C         7.1143122389       -0.2560751817       13.3013308998
  C         7.1486822139       -0.3606066787       14.7566277079
  C         8.1718579992        0.2091521951       15.5421057040
  C        11.4092709260        2.1179140536       13.4664417482
  C        10.2366073080        1.6909958951       12.7338898693
  C        10.1496645268        2.0700381402       11.3064306177
  C         9.3369315263        3.1622107738       10.9320515539
  C         9.2345106074        3.5820431183        9.6250672477
  C         9.9358941518        2.9191323796        8.6113696565
  C        10.8532724065        1.9126520038        8.8896510423
  C        10.9679333806        1.5641607459       10.3001955849
  H        11.6622711118        0.7476362392       10.4194961285
  H        11.5254379631        1.4296771812        8.1850000868
  H         9.7661204685        3.1235902624        7.5300217686
  H         8.5726067095        4.4597012021        9.3944189093
  H         8.8788415313        3.6980568073       11.7317236756
  C        12.4251189022        2.8334262422       12.8171191788
  C        13.4599520639        3.4881572738       13.4484115015
  H        14.2034431394        4.0911318067       12.9435725387
  H        12.3413081126        2.9578728103       11.7448031836
  C         8.3117830168       -0.1906858002       17.0023928947
  C         9.0813290865       -1.3201344207       17.4110786716
  C         9.0518245265       -1.8075823386       18.7297220142
  C         8.1360310262       -1.2621051554       19.6574029239
  C         7.4329132825       -0.0919113014       19.2925826705
  C         7.4298374574        0.3467515120       17.9815923705
  H         6.6559753224        1.0219004149       17.6570063220
  H         6.7640888097        0.3659362484       20.0428913764
  H         8.1208097126       -1.6033837846       20.6986079798
  H         9.6989337337       -2.6565459086       19.0376053659
  H         9.6868567407       -1.7201836920       16.6124731107
  C         6.2049139674       -1.1292587852       15.5079213972
  C         5.2369326966       -1.7927111705       14.8182192040
  C         5.0536121683       -1.6075374953       13.3655187668
  C         6.0242761233       -0.9318113017       12.5807104761
  H         5.8644535886       -0.8910627000       11.4806260141
  H         4.1901506664       -2.0373566405       12.9267280153
  H         4.5886890761       -2.5002319722       15.3703292869
  H         6.3218236270       -1.1853577721       16.6128873092
  C         8.3340706733        0.1136762554       11.1903179799
  C         9.1485540132       -0.8995097702       10.5987792923
  C         8.9335728775       -1.3898900119        9.3207609444
  C         7.9325170792       -0.7952681585        8.5405768918
  C         7.2186574711        0.3329893885        8.9986026722
  C         7.4871889548        0.8140709489       10.2980988920
  H         7.0114555173        1.7337964436       10.6476556378
  H         6.5366096555        0.7982774512        8.3375576326
  H         7.5809782372       -1.2941134088        7.6285774299
  H         9.4402282982       -2.3184778293        9.0777213600
  H         9.8764951038       -1.3689504831       11.1748194188
