140

  C         4.0914394160       -0.3812238332       13.9807033719
  C         5.0197969952        0.4555027708       14.6559113283
  C         6.2664057344        0.8932456690       13.9210084416
  C         7.4729831262        1.3465590320       14.5598511665
  C         8.5932584633        1.7946265412       13.8893290773
  C         4.9289574369        0.8305862479       16.0994739921
  C         4.1193780710        1.9225554525       16.3972200512
  C         4.0170414142        2.4284809923       17.6652803371
  C         4.7713240332        1.8589643172       18.7054786380
  C         5.7011878906        0.8975681873       18.4007744595
  C         5.7184428867        0.3451658769       17.1546649663
  H         7.3787290648        1.3945091559       15.6363999829
  H         9.5279122155        1.9737660556       14.4225398127
  H         3.5503932002        2.3958688717       15.5931863126
  H         3.3651373626        3.3050792846       17.7730090281
  H         4.8800127239        2.2864739498       19.7061906170
  H         6.4501569590        0.5266099566       19.0654482295
  H         6.4903387163       -0.3955839658       16.9892019523
  C         4.1087595858       -0.5216194141       12.5140602520
  C         3.0762870320       -1.2478433494       11.9218585459
  C         1.9310417333       -1.7447672102       12.6383751279
  C         1.8663411725       -1.5338856775       14.0640720795
  C         3.0346178029       -1.0031070450       14.7393136274
  C         6.2225219783        0.8497786998       12.4734317223
  C         5.1507502683        0.1200597044       11.8328121582
  C         4.9998936645        0.6229232716       10.3883778765
  C         4.1586236333        1.7523409239       10.0933541897
  C         4.1742477803        2.3208971957        8.7995821392
  C         4.9883480489        1.8184468396        7.7987290716
  C         5.8087155198        0.7207420052        8.1195120244
  C         5.8780826286        0.1665832236        9.3663787906
  H         6.5840647437       -0.5892397413        9.6705803146
  H         6.4620426635        0.3614925896        7.3969024629
  H         5.2437244130        2.3450156430        6.8881105229
  H         3.5622655660        3.2006009422        8.5226273573
  H         3.4172225301        2.1135248667       10.8384421431
  C         7.3078760986        1.4619293397       11.8023849768
  C         8.4622353887        1.9531547808       12.4704524945
  H         9.3366016877        2.4555100465       11.9518825579
  H         7.4081119361        1.4951614403       10.7368195833
  C         3.1334207583       -1.1929555952       16.1836297654
  C         3.8565219045       -2.2577041497       16.7440291800
  C         3.7997603661       -2.5891272322       18.0635485939
  C         2.9747435921       -1.9073286732       18.9637678376
  C         2.2008132612       -0.8720573887       18.4332153879
  C         2.3600881209       -0.5106602625       17.0913401888
  H         1.7947657627        0.3586435210       16.6989443816
  H         1.6322554420       -0.1906271366       19.0088526111
  H         2.7193722558       -2.3101437905       19.9685527842
  H         4.1648642271       -3.5339895495       18.4463024148
  H         4.2512291506       -3.0013388604       16.0216474097
  C         0.7679543958       -2.0871979759       14.7949259233
  C        -0.1990196634       -2.7376121157       14.0720303924
  C        -0.1807627272       -2.7920047588       12.6651621557
  C         0.8792145297       -2.3499572037       11.9671914409
  H         1.0062374796       -2.6035574588       10.9027192155
  H        -0.9920833236       -3.2948545770       12.1556128644
  H        -1.0434376559       -3.1668566962       14.5665448269
  H         0.6762787914       -1.9633969227       15.8159977132
  C         3.0793608714       -1.5275145861       10.4509321440
  C         4.1425324931       -2.3415623079        9.9176517392
  C         4.2191943310       -2.5985552585        8.5467160720
  C         3.1647715669       -2.2275214748        7.6791459466
  C         2.1549559985       -1.4225518446        8.1952488565
  C         2.1480997664       -1.0978892898        9.5519606435
  H         1.3686264253       -0.5110345386        9.9897068328
  H         1.2728910587       -1.0883827813        7.6171042786
  H         3.1783374471       -2.5830948301        6.6637247046
  H         4.9665118922       -3.3351406618        8.1248400106
  H         4.9110597183       -2.7373022798       10.5386685860
  C        11.4312895747       -0.3037937572       14.4005253435
  C        12.4882683844        0.4871004227       15.0764959366
  C        13.5295464921        1.0135502200       14.3092926087
  C        14.5509682987        1.7501965890       14.9282069598
  C        15.5791652600        2.3783286561       14.1849205980
  C        12.4199719034        0.8887675631       16.5425852469
  C        11.5372396327        1.9420448513       16.8652823994
  C        11.3783225126        2.3173794412       18.1868623650
  C        12.1385239777        1.7583289472       19.2355803214
  C        13.0278906357        0.7382121996       18.9221697166
  C        13.1694494824        0.2673314558       17.5975457403
  H        14.3986846924        1.9334037602       16.0010744971
  H        16.3269467440        2.9081693434       14.6744661957
  H        11.1313658409        2.5612461480       16.0744494235
  H        10.7037590494        3.1692950792       18.4233874891
  H        11.9491851600        2.1569971125       20.2567118769
  H        13.7045506259        0.3409078499       19.6585917751
  H        13.7569674115       -0.5897349058       17.2491394887
  C        11.4005662948       -0.2685038053       12.8987562935
  C        10.3376631218       -0.8575885659       12.1833667891
  C         9.2681521230       -1.4943640209       12.8973824377
  C         9.3721686338       -1.6691868695       14.3330699175
  C        10.4553854910       -1.0676197828       15.0692921357
  C        13.4968045635        0.9872403373       12.8523577732
  C        12.4101161966        0.4286529113       12.2589429361
  C        12.3241421792        0.7748325205       10.8048735031
  C        11.5547480248        1.8616968310       10.2964505035
  C        11.6321965510        2.1588750114        8.9468001693
  C        12.5174544970        1.5416024973        8.0952615923
  C        13.3470080161        0.5040591819        8.5728945549
  C        13.1615245501        0.1396251459        9.8894899648
  H        13.6920017727       -0.7695551291       10.3196143529
  H        14.0158165141       -0.1034540117        8.0361845304
  H        12.7349915730        2.0209768142        7.0597272356
  H        10.9474792380        2.9274134117        8.5816718887
  H        11.0091772765        2.4632866475       10.9914724563
  C        14.5349031364        1.6869031177       12.0874682610
  C        15.6109026651        2.2527957418       12.7951261047
  H        16.4063291735        2.7171452152       12.2490490707
  H        14.5942319234        1.6873749502       11.0104115756
  C        10.4619314973       -1.3218224449       16.5064644585
  C        11.3648700929       -2.2668720122       17.0247248065
  C        11.1633250806       -2.8107789328       18.3304821702
  C        10.1360029386       -2.3913118145       19.1311096394
  C         9.3217456970       -1.3302204846       18.6672638178
  C         9.4996230822       -0.7711228342       17.4237980803
  H         8.9039637087        0.0532732815       17.0282327550
  H         8.4564250711       -1.0055494113       19.2687001843
  H        10.0143210967       -2.8898051530       20.0776765431
  H        11.8128238597       -3.5255417996       18.7385684109
  H        12.2351532110       -2.5891629007       16.4628939017
  C         8.3643718093       -2.3810540877       14.9943802150
  C         7.1934608794       -2.8383874216       14.3453445364
  C         7.1208328160       -2.6922507925       12.9642191288
  C         8.1327388735       -2.1341274850       12.3096945413
  H         8.0849197897       -2.1422119879       11.1878377564
  H         6.2742726781       -3.0289036178       12.3290383968
  H         6.3574420464       -3.2313790510       14.9498611913
  H         8.4146785234       -2.5840868931       16.0541572710
  C        10.3519861752       -1.2201241289       10.7611892735
  C        10.9778575107       -2.4496502976       10.3465496483
  C        10.7923276965       -3.0758449400        9.0854551922
  C         9.8643177415       -2.4480758468        8.2535148517
  C         9.2835591661       -1.2780487879        8.6534650610
  C         9.5842983415       -0.5830785594        9.7985705739
  H         9.2425147585        0.4338122071        9.8953981717
  H         8.6205771076       -0.7354851885        8.0082902042
  H         9.5708330931       -2.9386596756        7.3243641269
  H        11.2926280236       -4.0442807813        8.8807864546
  H        11.6037328304       -2.9868676417       11.0653987634
