140

  C         5.0330165110       -1.2750106480       13.6760468348
  C         6.0907201454       -0.5461265771       14.2977967434
  C         7.1892635936       -0.0707659583       13.5587991360
  C         8.3002182565        0.6363817419       14.1575770569
  C         9.3674362375        1.1200072706       13.4193899121
  C         6.0129833161       -0.1456086650       15.7447079418
  C         5.2254440926        0.9674924309       16.1240711052
  C         5.2115254792        1.4469898705       17.4666591344
  C         6.1466261905        0.9216547434       18.3331428541
  C         7.0288989313       -0.0864547141       17.9473196219
  C         6.9139739241       -0.6828847011       16.6668667701
  H         8.3089567961        0.7755675956       15.2248528561
  H        10.1344578329        1.7628738062       13.9383838358
  H         4.5591167694        1.3536729263       15.3382843195
  H         4.6520535598        2.3053907645       17.8071106291
  H         6.2808153038        1.4259079456       19.3049523718
  H         7.7895404229       -0.4743635351       18.7029882876
  H         7.4627422886       -1.5501826640       16.4491257561
  C         5.0682103365       -1.3378504003       12.1882297480
  C         4.0291807508       -2.0446982586       11.4366112936
  C         2.9092043141       -2.6084028189       12.2010720050
  C         3.0387139049       -2.6900814914       13.6559078039
  C         4.1127055930       -2.0815889467       14.3746838894
  C         7.1842021841       -0.1649034005       12.1066846667
  C         6.0740000523       -0.7104716143       11.4400307778
  C         6.0122729295       -0.4455436254        9.9606757658
  C         5.2503545148        0.6585658419        9.5504666374
  C         5.4185822865        1.1847101514        8.2584393473
  C         6.3781643924        0.6759599263        7.3754121113
  C         7.0340994662       -0.5679399514        7.7094386422
  C         6.8680688829       -1.0947526225        9.0229568892
  H         7.3215703796       -2.0558031392        9.3228264441
  H         7.7038197211       -1.0420824847        7.0323655244
  H         6.5379507584        1.1393465958        6.4051691961
  H         4.8208089627        2.0581808847        7.8940499800
  H         4.5465580531        1.1549848156       10.2368422484
  C         8.2041021852        0.5695786546       11.3937142512
  C         9.3290843431        1.0413522199       11.9797451133
  H        10.1410654897        1.4539841806       11.4134680901
  H         8.2359248561        0.4249380089       10.3191011492
  C         4.1865763639       -2.3761708844       15.9104745294
  C         5.0369317128       -3.3267655268       16.4295270987
  C         5.0567746073       -3.7876476108       17.7604625282
  C         4.1786510263       -3.1646051846       18.6336565546
  C         3.4236909569       -2.0165032621       18.2387219587
  C         3.4546542906       -1.6760740143       16.8920660132
  H         2.8452795555       -0.8931632020       16.4645255760
  H         2.7762065393       -1.4594970155       18.9648767290
  H         3.9896465615       -3.6138142353       19.6340708230
  H         5.7897394925       -4.5152978445       18.0349541731
  H         5.8026376678       -3.8282193530       15.8244159649
  C         2.0713814523       -3.5197172175       14.3156850514
  C         0.9589818413       -3.9851718106       13.6691669130
  C         0.8266508320       -3.8011701613       12.2980821854
  C         1.7311454033       -3.1269607692       11.5558453886
  H         1.6064214633       -2.9949200251       10.5096829701
  H        -0.1134628913       -4.1569369863       11.7791636560
  H         0.1458605891       -4.4992882660       14.2335217597
  H         2.2373632506       -3.7062602440       15.3676305306
  C         4.1877117728       -2.5140125077       10.0351697850
  C         5.1705506689       -3.4859549274        9.7069037393
  C         5.2274110966       -4.0302813703        8.4114144317
  C         4.2833428330       -3.6688077064        7.3909257203
  C         3.3362047289       -2.6757077257        7.6927991270
  C         3.3240870948       -2.1237555636        9.0093690404
  H         2.5388252304       -1.3087919362        9.1816335368
  H         2.5177755339       -2.4485441576        7.0781582815
  H         4.2598093994       -4.2188789411        6.4775261890
  H         5.9935829652       -4.8120476658        8.2007984470
  H         5.8416690654       -3.8131804996       10.5379515872
  C        12.2579633382       -1.3019484458       13.6202331169
  C        13.2659710848       -0.6129392498       14.3324277714
  C        14.3345550199        0.0399886742       13.7185414107
  C        15.3619538806        0.7738959193       14.4355903424
  C        16.4953843639        1.2353387234       13.7449641630
  C        13.0505562971       -0.1496183803       15.7662495623
  C        12.1549124669        0.8972149774       16.0466039881
  C        11.9978890965        1.4168805242       17.2981036604
  C        12.7864022014        0.9433222731       18.3248586545
  C        13.6328286052       -0.1073000688       18.1374798831
  C        13.8269213121       -0.6475528208       16.8473301484
  H        15.3784981393        0.8709025124       15.4972301198
  H        17.3126142824        1.7450438515       14.1641289303
  H        11.5337708011        1.2849618546       15.2260373955
  H        11.3015764017        2.2703276333       17.3909394684
  H        12.5509331380        1.3228561570       19.2987763292
  H        14.1139915486       -0.5750834374       18.9946636417
  H        14.5178598046       -1.5202962533       16.6284985963
  C        12.2951210353       -1.3260154066       12.1163312548
  C        11.3458398633       -2.1004313461       11.4504514767
  C        10.2045900160       -2.6035533919       12.1270147200
  C        10.1218829559       -2.5382877416       13.6242410140
  C        11.3235351103       -2.0265641557       14.2673513598
  C        14.3927852961       -0.0003045085       12.2761723280
  C        13.3289484641       -0.5626537801       11.5242475131
  C        13.2313029042       -0.3192189195       10.0692014529
  C        12.2689308285        0.5758072453        9.5864187105
  C        12.2600313593        0.9805984123        8.2273062492
  C        13.1439707545        0.3967854199        7.2928071744
  C        14.1317277248       -0.4438978368        7.7495894775
  C        14.1633087689       -0.8453708054        9.1129000685
  H        14.8827613820       -1.5989377178        9.3858136669
  H        14.8681294830       -0.8803445323        7.1189414360
  H        13.1253405935        0.6596229764        6.2153573508
  H        11.4746703538        1.6158586109        7.9272964370
  H        11.5974451270        1.0822557995       10.3140262015
  C        15.5333082407        0.5998275728       11.5948044756
  C        16.5456877211        1.1146779972       12.3193620175
  H        17.4851540174        1.5119859879       11.8729064355
  H        15.6293774998        0.3893076804       10.5395243749
  C        11.4076332169       -2.3536363617       15.7451532226
  C        12.1173972551       -3.4436090202       16.2162057491
  C        12.0122884727       -3.8682015614       17.5484589082
  C        11.1127820683       -3.2236355819       18.4383200521
  C        10.4027632123       -2.0916183706       17.9718370362
  C        10.5207208756       -1.6570187916       16.6676257109
  H         9.8156869667       -0.9305832220       16.2557925658
  H         9.6502028670       -1.5592594645       18.6457480251
  H        11.0179108832       -3.5617193442       19.5337246561
  H        12.5449332460       -4.7377662181       17.8962451910
  H        12.7168832199       -3.9364250350       15.4547688358
  C         9.1412367509       -3.3011753275       14.2988764675
  C         8.1344926702       -3.8877803293       13.6001628256
  C         8.0805958057       -3.7980258072       12.1957643322
  C         9.1153333132       -3.2214089994       11.5031372304
  H         9.1169964118       -3.3808745421       10.4067191169
  H         7.1918817620       -4.1689444396       11.6924249510
  H         7.2507483643       -4.4883950753       14.0475596982
  H         9.2237138753       -3.3128524828       15.3751891977
  C        11.4520338426       -2.5279623548       10.0009791996
  C        12.2682630712       -3.6457326596        9.7238439921
  C        12.2261318410       -4.2590353723        8.5206722886
  C        11.3170145727       -3.8472512966        7.5493489100
  C        10.5378147532       -2.7485408876        7.7936188728
  C        10.5705742015       -2.0305971924        9.0109366652
  H         9.7630879297       -1.2387806594        9.1185909300
  H        10.0267648049       -2.2713429909        6.9555049325
  H        11.2485479992       -4.3507215817        6.5421512389
  H        12.9165725395       -5.0801683438        8.3348868329
  H        13.0759509682       -3.8109724591       10.3923886293
