140

  C         3.5137599780        0.0137116163       14.6006113122
  C         4.5911896297        0.5851440805       15.3101897197
  C         5.6511092524        1.1162843977       14.6037335930
  C         6.8083745682        1.7840813256       15.2284772197
  C         7.8003401537        2.3939157346       14.4807158004
  C         4.4658493820        0.8391900874       16.8544829658
  C         3.5744154981        1.8193368587       17.3218393231
  C         3.7294670344        2.3950642543       18.6308189255
  C         4.7818388646        1.9517649385       19.5010418761
  C         5.7479107187        1.0435656993       18.9232963562
  C         5.5542728868        0.5583584607       17.6449810877
  H         6.8325685620        1.8182020925       16.3191181392
  H         8.5991242661        2.9085168640       15.0757174143
  H         2.8638682057        2.3471701797       16.6911725392
  H         2.8893761175        3.0323790473       18.8148964805
  H         4.8641836962        2.0693425765       20.6095524837
  H         6.5351153475        0.7019086721       19.6129992582
  H         6.2342503820       -0.2035993520       17.3024532499
  C         3.5248540608        0.0128203594       13.1345518698
  C         2.5029146659       -0.7128965407       12.4289835256
  C         1.4248658608       -1.2409516111       13.1321566933
  C         1.3103727975       -1.1255012969       14.5473561683
  C         2.4627413751       -0.6799910434       15.2367285126
  C         5.5315103521        1.3231314721       13.1531930299
  C         4.4401209495        0.8323902506       12.4189153619
  C         4.4172321226        1.1177103549       10.9018959610
  C         3.8802532460        2.3245790594       10.4482497676
  C         3.8450147230        2.6859630531        9.0678766423
  C         4.3641706583        1.7893976212        8.1540657572
  C         5.0207562080        0.7065139860        8.6181628148
  C         5.1159268020        0.3771321232       10.0062024720
  H         5.5303153449       -0.6349017028       10.1335915248
  H         5.4900474766        0.1153823445        7.8494481369
  H         4.2400867779        1.9531326512        7.0987275185
  H         3.4214855855        3.5935635073        8.6021109070
  H         3.5132033122        3.0548222551       11.1674434075
  C         6.6401032314        1.9282965271       12.4509649601
  C         7.8005976516        2.4094645940       13.0394355352
  H         8.7152834962        2.6974904039       12.5595365104
  H         6.5524839426        1.9986223799       11.3643871543
  C         2.4910924169       -1.0073332903       16.6967733859
  C         3.3888974527       -1.9684287024       17.2307954126
  C         3.4514682294       -2.2382028960       18.5865819341
  C         2.4756293980       -1.6839628320       19.4378627524
  C         1.4347744319       -0.9389456188       18.9662770574
  C         1.4766287134       -0.5722473554       17.6092505666
  H         0.6649669662        0.0682982235       17.2455138839
  H         0.6569991959       -0.6535956438       19.6127240780
  H         2.6867762306       -1.9381403508       20.5061366888
  H         4.2158154242       -2.9063205228       18.9686857883
  H         4.1322227182       -2.4650787395       16.6231537026
  C         0.2423525866       -1.8949434144       15.2332968663
  C        -0.7731951086       -2.5099341199       14.5430845595
  C        -0.8313535266       -2.3872578953       13.0805639713
  C         0.2876831278       -1.8943669368       12.4574847623
  H         0.3341242248       -1.9433067564       11.3820236371
  H        -1.5188983177       -2.8493204725       12.4615008481
  H        -1.5176119640       -3.0967156821       15.0568642591
  H         0.2346389930       -2.0448782400       16.2976629904
  C         2.4756988334       -1.0999225105       10.9833113811
  C         3.1778598368       -2.2390855110       10.6306850013
  C         3.2041528896       -2.6803333577        9.2972088521
  C         2.6555338002       -1.8910420485        8.2653056934
  C         1.8683585280       -0.7354302427        8.6246112378
  C         1.8182030238       -0.3714603044        9.9866723176
  H         1.3779709622        0.5759877804       10.2175003915
  H         1.4737461475       -0.1047682483        7.8619987032
  H         2.7347434090       -2.1527776901        7.1884267789
  H         3.7838757722       -3.6285200677        9.1171493467
  H         3.8111148845       -2.8118457421       11.3806501013
  C        11.0288188401       -0.0910372875       14.5697269318
  C        12.0142551976        0.6484726545       15.1709235371
  C        13.1203909853        1.2055186318       14.4276063785
  C        14.1681779576        1.9889078106       15.1234523973
  C        15.2383139979        2.4663571829       14.4045667049
  C        11.9482502510        1.1472569940       16.5896500541
  C        10.9101501283        2.1406110532       16.7946969608
  C        10.7978916848        2.7371165310       18.0730409742
  C        11.6948291280        2.4123798451       19.0807521731
  C        12.7091176378        1.4792919755       18.8328903811
  C        12.8151539110        0.7778431104       17.6341714194
  H        14.2396553024        2.1049662819       16.1831429635
  H        16.0973772677        3.0197517572       14.8146832437
  H        10.3576030996        2.4708249512       15.8874756493
  H        10.0177817354        3.4408688151       18.2943663042
  H        11.5956156415        2.9215029879       20.0574102195
  H        13.4652277752        1.2311965446       19.5397213284
  H        13.5965522888        0.0208408334       17.5526404267
  C        10.9685435809       -0.0149486526       13.0640211965
  C         9.9307566266       -0.6650396828       12.3762996710
  C         8.7820925558       -1.2033628833       13.0578241002
  C         8.9080590023       -1.3730884510       14.5185122951
  C        10.0397413650       -0.8853496651       15.2126331092
  C        13.0869085327        1.2365757054       13.0444686791
  C        11.9620187767        0.7398157722       12.3855769377
  C        11.7460542965        1.1395402589       10.9158950240
  C        10.8891348303        2.1544094676       10.6332415744
  C        10.7337417195        2.5317840906        9.2829753957
  C        11.4821393739        1.9909208008        8.2713365080
  C        12.4796410912        1.0751704611        8.5751321579
  C        12.5268170526        0.5692799523        9.8914632809
  H        13.2953851072       -0.0710126016       10.2467698968
  H        13.2073126947        0.7945086480        7.8160638342
  H        11.3247254059        2.2933270315        7.2348716099
  H         9.9997079017        3.3698730126        9.1176846686
  H        10.2663295139        2.6522051245       11.3173411248
  C        14.1631105548        1.8358891327       12.3174282609
  C        15.2054957799        2.4027645298       12.9911588012
  H        16.0712734073        2.8329431120       12.5026068096
  H        14.1125438560        1.9987112187       11.2306407897
  C        10.1291646349       -1.2799958654       16.6616652634
  C        10.9199409407       -2.3654632705       17.0879760864
  C        10.7982306342       -2.8247540915       18.3890242839
  C         9.9341037211       -2.1509558310       19.3155333624
  C         9.2032712207       -1.0390314604       18.8784983358
  C         9.3511009806       -0.5930807743       17.5449670836
  H         8.8301947443        0.2597122309       17.1552887275
  H         8.5670542235       -0.4523231381       19.5267877452
  H         9.8979445100       -2.4986682997       20.3761919495
  H        11.3418341440       -3.7012290161       18.7014792364
  H        11.6837167862       -2.7737094201       16.4406705991
  C         7.7674898937       -1.9213396593       15.2217371348
  C         6.6104449969       -2.3703093418       14.5320134763
  C         6.5325608363       -2.2049953279       13.1114703034
  C         7.5818736542       -1.6340796790       12.4336978904
  H         7.5058087669       -1.5897334410       11.3339171441
  H         5.7052372459       -2.6776346491       12.5620936999
  H         5.8012845673       -2.8050771775       15.1180786842
  H         7.7990502691       -1.9691746393       16.3495490945
  C        10.0582327373       -1.1366544724       11.0205231027
  C        10.7860480690       -2.2973683683       10.7386054813
  C        10.6976615844       -2.9363395109        9.4618893367
  C         9.8357107664       -2.4830229921        8.4964519210
  C         9.0277111624       -1.3521696491        8.8318055868
  C         9.0806964642       -0.7745211947       10.0893597779
  H         8.4355132374        0.0651212410       10.3055738893
  H         8.3251625701       -0.9659862072        8.0423033628
  H         9.8483478203       -2.8224272757        7.4639191583
  H        11.1191463733       -3.9455897956        9.3592376669
  H        11.3473284700       -2.7584953343       11.5654774932
