140

  C         3.7224134501       -0.2635337364       14.3992784816
  C         4.6001547508        0.5706513740       15.0648923463
  C         5.6991933520        1.2262990029       14.4230785282
  C         6.5499528827        2.0613572372       15.1897821757
  C         7.6327230123        2.6345686340       14.5663109993
  C         4.5554657517        0.8583575893       16.5558721430
  C         3.7039313835        1.9107677219       17.0200633663
  C         3.7957751826        2.4133029020       18.3228798821
  C         4.7232505625        1.8041582332       19.2050239757
  C         5.5770281265        0.7786372280       18.7913455594
  C         5.4132407745        0.2553282090       17.5271377348
  H         6.5027708393        2.0713129158       16.2953312233
  H         8.3287645334        3.1090530397       15.2434589143
  H         3.0616608107        2.4781841473       16.3056437273
  H         3.0399458469        3.1270008189       18.6997828202
  H         4.6808023531        2.2345563301       20.1876950581
  H         6.2559524859        0.3737502238       19.4877982177
  H         6.1138994914       -0.5778704327       17.2385424137
  C         3.8266039771       -0.2381095586       12.9032810382
  C         2.8674680326       -0.9588142337       12.1545762104
  C         1.8155726898       -1.7136050295       12.8023061246
  C         1.8708248472       -1.8180956256       14.2156207645
  C         2.7522054888       -1.0824865235       15.0083799850
  C         5.8580042223        1.1589037283       12.9273578787
  C         4.8570823536        0.5077791622       12.2336164051
  C         4.8613104683        0.9193613926       10.7449443371
  C         4.2101570557        2.1846750726       10.5084624046
  C         4.3511597014        2.8604563764        9.2705234451
  C         5.1837855448        2.2281576621        8.3027811001
  C         5.8990458071        1.0577044841        8.5676214693
  C         5.7234991380        0.3870152938        9.7912314896
  H         6.1008054155       -0.6286068505       10.0805351444
  H         6.6696931028        0.6423281100        7.8652183044
  H         5.3318662825        2.6812594290        7.3146335291
  H         3.7910478088        3.7865292929        8.9705735032
  H         3.5583424545        2.6314080264       11.3039161484
  C         6.9771618033        1.8823263185       12.3555926526
  C         7.8617821636        2.5629979247       13.1599654351
  H         8.6156601623        3.1523635702       12.6813365556
  H         7.1717278286        1.7445771037       11.2809824729
  C         2.8794846048       -1.4674757610       16.4813973018
  C         3.8029371910       -2.3799111588       16.9028772304
  C         3.8445201708       -2.9225580716       18.2299606976
  C         2.9970018621       -2.4074435498       19.1369585421
  C         2.0347659196       -1.4250016795       18.7654532649
  C         1.8314291550       -1.1781030109       17.4416276007
  H         1.0640972424       -0.4603623887       17.0635496395
  H         1.3658607759       -0.9449162177       19.4413397025
  H         3.0968568551       -2.6290213159       20.2329282257
  H         4.5911094020       -3.7232777342       18.4801041623
  H         4.5510594134       -2.6999404419       16.1416641844
  C         0.7658097956       -2.4811910731       14.8768401512
  C        -0.3070269349       -2.9128776463       14.2132646801
  C        -0.2378186408       -2.9423516825       12.8128477091
  C         0.7923077205       -2.3550895379       12.1141271037
  H         0.8819406679       -2.3560561519       11.0584622803
  H        -1.1126784358       -3.3798069556       12.2819589076
  H        -1.1933693993       -3.3635533635       14.7177178295
  H         0.7606385299       -2.6604121292       15.8950705805
  C         2.9356038650       -1.1791943826       10.7014475722
  C         3.9903128709       -1.9661726786       10.1631725333
  C         4.0106984294       -2.4030724414        8.8385810291
  C         3.1398459303       -1.8761374667        7.9346766684
  C         2.0249867237       -1.1034254110        8.4833242291
  C         1.9777807128       -0.7246573448        9.8248962179
  H         1.1390171828       -0.0852988111       10.1311477617
  H         1.1536954162       -0.8834287773        7.8464855871
  H         3.2378491669       -2.1255128943        6.8374320877
  H         4.9058930256       -2.9641613456        8.4792492353
  H         4.8294603496       -2.1938208288       10.7623516936
  C        10.8953596498       -0.2442970472       14.2476345085
  C        11.9302602212        0.4135830697       14.9499557687
  C        12.9939525367        1.0297517491       14.3582934155
  C        14.0463727800        1.7474906300       15.0579457592
  C        15.0998342578        2.2859282304       14.4603801812
  C        11.7671568791        0.7222852967       16.4086456484
  C        10.7565015863        1.6504675986       16.8315240907
  C        10.7797352702        2.0704642119       18.1945630726
  C        11.6529645838        1.4507133337       19.1828554458
  C        12.6069156734        0.6314769232       18.6754829005
  C        12.6964858948        0.2625689987       17.3248770287
  H        14.0950618766        1.7680478477       16.1682660738
  H        15.7413751020        2.9944199769       14.9827901367
  H        10.0611905734        2.0292551589       16.0761414441
  H         9.9650836599        2.6798492861       18.5540842021
  H        11.7806177865        1.8609323620       20.1792954271
  H        13.4430676228        0.2246200581       19.2805368107
  H        13.4749496317       -0.4183716942       16.9529301561
  C        10.9904716060       -0.2226171282       12.7794513938
  C         9.9542960706       -0.8943574036       12.0464383253
  C         8.8472529006       -1.4875867948       12.7741452590
  C         8.7583914317       -1.5136550205       14.1702338333
  C         9.7933695938       -0.9340311355       14.9200566079
  C        13.0855048916        0.9940184905       12.8779112799
  C        12.0187393583        0.5576262232       12.0930669392
  C        11.8866094923        0.9954583318       10.6196377268
  C        10.8485559300        1.8337421966       10.2350095527
  C        10.7495451261        2.2680866852        8.9028461644
  C        11.7669856932        1.8009438826        7.9955122726
  C        12.8218843578        0.9282352373        8.3837071632
  C        12.8526124073        0.5213810093        9.7070230699
  H        13.5127532771       -0.2369609101       10.1276181925
  H        13.3894106569        0.4086482860        7.6997958695
  H        11.6225256635        2.0837778180        6.8815516265
  H         9.9898469870        2.9174912712        8.5686609868
  H        10.0663445390        2.0134899107       10.9262779826
  C        14.2554711922        1.6050969897       12.2887321792
  C        15.1924389020        2.2664035387       13.0055519971
  H        15.9640144218        2.9110741631       12.6101859576
  H        14.3775431319        1.5317105471       11.2169182696
  C         9.8644652033       -1.3336360784       16.3816599028
  C        10.8803687248       -2.3095620559       16.6591396962
  C        11.0524275574       -2.8624410026       17.9180514597
  C        10.1072910020       -2.4300816156       18.8984593902
  C         9.2012114120       -1.4036543761       18.6508517514
  C         9.0315325207       -0.8161578745       17.3622598905
  H         8.2669197422       -0.0729863700       17.0831705917
  H         8.5690487543       -1.1017491530       19.5088824180
  H        10.1844254093       -2.8196210783       19.9376896723
  H        11.8322421334       -3.5874215477       18.1535213651
  H        11.5516946933       -2.6059363632       15.8600393929
  C         7.5933829687       -2.0909449002       14.8386270315
  C         6.6079281512       -2.7129057867       14.0718101399
  C         6.8351904008       -2.8496219140       12.6309485428
  C         7.9056778862       -2.1984731997       12.0186081119
  H         8.0310766807       -2.1166151065       10.9286516350
  H         6.1647655853       -3.5207997747       12.1001584011
  H         5.7472398648       -3.1313986115       14.6183271306
  H         7.4708462180       -2.2203998007       15.8902771390
  C        10.2527852958       -1.2994324602       10.6325499403
  C        11.1737534205       -2.3164786997       10.5227203341
  C        11.5733973412       -2.9459022024        9.3278914968
  C        10.8771107282       -2.5262548906        8.1717251778
  C         9.9764171936       -1.4915784087        8.2231765143
  C         9.5493325721       -0.9510647721        9.4331212994
  H         8.9036572713       -0.0564505610        9.4581185375
  H         9.5681237750       -1.1576100735        7.2623094023
  H        11.0750009808       -2.9780009189        7.2085084327
  H        12.3900298298       -3.6723420071        9.3736793047
  H        11.4620406917       -2.8010410508       11.4314785151
