140

  C        12.1087646548        5.9943656517        0.1825726211
  C        11.0787411701        6.7209108024        0.8473776440
  C        10.0054878055        7.2835837526        0.0805422299
  C         8.9091792646        8.1585630342        0.6248806082
  C         7.8967594532        8.6381097844       -0.0665218272
  C        11.0827472910        7.0111723285        2.2946222103
  C        12.0376342533        7.8947961928        2.8142508565
  C        12.0382049574        8.1733813848        4.2179727103
  C        10.9896940975        7.7635233728        5.1204676275
  C         9.9847356880        7.0337149842        4.5044844962
  C        10.0776092259        6.6361767859        3.1822864692
  H         8.9103963295        8.2655742506        1.6814980621
  H         7.0715338830        9.1499833005        0.3909638363
  H        12.7929676387        8.3653756848        2.1436872115
  H        12.8802775206        8.8266450055        4.5529886753
  H        10.8272541470        7.8857111780        6.2071205534
  H         9.0849665802        6.6966019110        5.0654056220
  H         9.3202008932        5.8681906842        2.8032314573
  C        12.1203721865        6.0482069517       -1.3118192264
  C        13.2197283239        5.3491897730       -2.0066233091
  C        14.2614533646        4.7765370924       -1.2577258455
  C        14.2698567238        4.7078020817        0.1852612338
  C        13.1147616559        5.2215227992        0.9176249426
  C        10.0226384247        7.2359698587       -1.3664328210
  C        11.1042308298        6.6751099966       -2.0377510125
  C        11.2470548891        7.0118807602       -3.5238306506
  C        12.1990090494        7.9230568248       -4.0081018659
  C        12.1723663180        8.3218224527       -5.3253237206
  C        11.1391775830        7.8852530214       -6.2038991928
  C        10.2261420704        6.9733207105       -5.7146319987
  C        10.3018595905        6.5226728736       -4.4142095287
  H         9.6730872771        5.7435051680       -4.0483598739
  H         9.3572713492        6.5521947010       -6.2734103975
  H        11.2545297725        8.1504948033       -7.1961826393
  H        12.9364873084        9.0649665483       -5.6350048503
  H        12.9503394392        8.1687085273       -3.2256012945
  C         8.8083784553        7.7018276213       -2.0958705549
  C         7.7910036768        8.3485546113       -1.4210283004
  H         6.8257631236        8.5452105188       -1.8880068240
  H         8.6141879374        7.6096944397       -3.1422728090
  C        12.9485703205        4.7501187844        2.2752042290
  C        11.8194666097        3.9797209424        2.5901515813
  C        11.7531688971        3.4313946456        3.8397120770
  C        12.7133247327        3.6795238358        4.8261089621
  C        13.7446786456        4.6020918246        4.5761904795
  C        13.8593735188        5.1652582752        3.3157576528
  H        14.5278414969        5.9626945184        2.9875087454
  H        14.2833881770        4.9237034374        5.4587979448
  H        12.6733077539        3.3206611789        5.8825783169
  H        10.8151990118        2.8822865232        3.9364010575
  H        10.9817203832        3.7867510656        1.8808404717
  C        15.3490546296        4.0930788506        0.8609697946
  C        16.4005101083        3.6310438904        0.1446458378
  C        16.4364596105        3.6167873430       -1.2685231770
  C        15.3462158304        4.1065273704       -1.9595041994
  H        15.3825507842        4.0192310893       -3.0181068581
  H        17.2904287521        3.2116908505       -1.7781665512
  H        17.3546098526        3.3648521196        0.6967079275
  H        15.2284101610        3.8943422227        1.9314631226
  C        13.1221019771        4.9346544575       -3.4438318455
  C        12.2108042640        3.8642240321       -3.6972622850
  C        11.9724548119        3.4062889756       -5.0389097952
  C        12.7019826549        4.0636462984       -6.0726367917
  C        13.6993864115        5.0019187895       -5.8631380443
  C        13.8732524298        5.4299652922       -4.5270911086
  H        14.5574967904        6.2621618511       -4.3214622624
  H        14.2061217741        5.4288691123       -6.7504867226
  H        12.4872321613        3.7102968630       -7.0821610788
  H        11.2531407370        2.6326199416       -5.2519825382
  H        11.6552102901        3.3929370335       -2.9725000017
  C        19.2922878811        5.7628610136        0.3317848835
  C        18.3262000716        6.4852484712        1.1132805882
  C        17.2288097185        7.1014763417        0.4555508410
  C        16.2345665843        7.7872414644        1.2132795083
  C        15.1063578470        8.2397086552        0.5731836225
  C        18.3248057332        6.8188801512        2.5490098355
  C        19.2240731544        7.9031887319        2.9066074949
  C        19.1984895322        8.5035058889        4.1702037106
  C        18.3610677903        7.9419638106        5.1449596867
  C        17.5598556963        6.8246876725        4.8570264213
  C        17.5034758678        6.3217268672        3.5940958871
  H        16.2891722084        8.0544219286        2.2583857655
  H        14.3629279134        8.7877335878        1.1813730604
  H        19.8735398193        8.3999921577        2.1767434165
  H        19.8878589772        9.3174175761        4.4440421815
  H        18.4485922177        8.3340830904        6.1612158388
  H        17.0735619771        6.1855821899        5.6466521349
  H        16.7761676544        5.5561358910        3.3376820515
  C        19.2177214474        5.7583165429       -1.1533454528
  C        20.2053972750        5.0617907592       -1.8882864353
  C        21.3537786560        4.5637269054       -1.2461672220
  C        21.4270192920        4.5255150872        0.1886526530
  C        20.3284643495        5.0061509526        0.9799907527
  C        17.1244262308        7.0300405225       -0.9971042781
  C        18.1736022228        6.5035980023       -1.8296250738
  C        18.1058011672        6.8400894439       -3.3080164442
  C        18.9437586091        7.7887249458       -3.9437322066
  C        18.8387056219        8.0603745086       -5.3385049088
  C        17.9372832419        7.3495090899       -6.1828100290
  C        17.1215396217        6.3672547951       -5.5442628484
  C        17.1897234684        6.1925827093       -4.1497900518
  H        16.6648630129        5.4237483049       -3.6274091874
  H        16.2961825104        5.8917881619       -6.0441215212
  H        17.9197947076        7.5637295865       -7.2730802409
  H        19.4442161272        8.8992493358       -5.6671194458
  H        19.7931171899        8.2738703176       -3.4281859612
  C        15.8941228130        7.5804777749       -1.6099713405
  C        14.9122796871        8.1743247029       -0.8002630333
  H        14.0627504634        8.6441175128       -1.2692117832
  H        15.7770811856        7.5081263796       -2.7049103307
  C        20.3723534745        4.6938942850        2.4255424093
  C        19.8670715540        3.4385209599        2.8220325108
  C        19.9792579582        3.0951236788        4.1818766007
  C        20.8253447330        3.8332833177        5.0486035578
  C        21.4537415120        4.9648799599        4.5575798231
  C        21.1855783200        5.4383569483        3.2767390852
  H        21.5156751110        6.4521896425        3.0130469462
  H        22.2045451594        5.4712786140        5.1304163613
  H        20.9748994340        3.5264682646        6.0737852747
  H        19.5934271704        2.1510087531        4.5298396643
  H        19.2527426889        2.8938736943        2.1413437191
  C        22.6671002711        4.0596008999        0.8030609823
  C        23.6371695826        3.5333061980        0.0215667584
  C        23.4679929797        3.3721827878       -1.3620015331
  C        22.3328428698        3.8415323574       -1.9753854952
  H        22.2098931088        3.7949279648       -3.0192210605
  H        24.1540040519        2.7136127458       -1.9516313077
  H        24.5243888185        3.2360288008        0.5530390403
  H        22.8891642010        4.2200491370        1.8562732171
  C        20.1375769438        4.7443243565       -3.2822842633
  C        19.5511866908        3.5218611217       -3.6537294459
  C        19.6066686254        3.0403750876       -4.9622345332
  C        20.3348106871        3.7571098678       -5.9135112687
  C        20.9361027787        4.9634763800       -5.5710091020
  C        20.8093607781        5.4885669432       -4.2751588900
  H        21.3475850198        6.4129183898       -4.1461040644
  H        21.4835625567        5.4384194604       -6.3269688993
  H        20.2965212176        3.4654193796       -7.0287147279
  H        19.0546097741        2.0982132305       -5.1347862043
  H        19.0730670317        2.8820032602       -2.8142056880
