140

  C         9.5156731274        7.3951399732        1.1764007796
  C         8.5219408501        8.1176170552        1.8550030813
  C         7.4869171525        8.6674301309        1.0737445684
  C         6.4970788408        9.4110876872        1.7385566786
  C         5.5004923907       10.1118627211        1.0502834595
  C         8.4607339002        8.4696505083        3.2723500251
  C         9.0660296803        9.6753732314        3.5537282046
  C         9.1933422394       10.0559294537        4.9008781702
  C         8.5787740327        9.2536583636        5.8817150299
  C         7.7165929042        8.1899727940        5.6441310684
  C         7.7354662860        7.7144966236        4.2673589611
  H         6.5569705478        9.5148675463        2.8105462158
  H         4.7194895970       10.6736890774        1.5396627177
  H         9.4733968455       10.4064793136        2.8259146853
  H         9.7018683317       10.9503300931        5.2265341689
  H         8.7546937384        9.6350674250        6.9299484741
  H         7.1333553882        7.6778619143        6.3916045280
  H         7.3234441452        6.7516553858        4.0278967853
  C         9.5766783451        7.4307892131       -0.3112972915
  C        10.6499685979        6.7376826370       -0.9873671084
  C        11.7641258018        6.2274357560       -0.2720002405
  C        11.7927378605        6.3350920088        1.1905225382
  C        10.6301413892        6.8530730298        1.8833014538
  C         7.4713298360        8.5669996374       -0.4161286744
  C         8.6553943338        8.1754167856       -1.0658975261
  C         8.8496745900        8.6399088631       -2.5202494135
  C         9.8957429321        9.5419079911       -2.7049170115
  C        10.0401958341       10.2300413136       -3.9510516339
  C         9.1277517646        9.9379673020       -5.0108722331
  C         8.0619381060        9.0586974017       -4.8077354867
  C         7.9918237053        8.3465433824       -3.6042350699
  H         7.1487157573        7.7407762171       -3.5933639939
  H         7.3071123470        8.9862595784       -5.5855851607
  H         9.0217997441       10.5866223554       -5.9107336683
  H        10.9111165866       10.9023705646       -4.0651124903
  H        10.6945146813        9.6869066997       -2.0328204236
  C         6.3668363929        9.2108897040       -1.0553502377
  C         5.4858801385       10.0153662756       -0.3453299581
  H         4.7100367301       10.5164226434       -0.8947315146
  H         6.2050073731        9.3134499271       -2.1555651004
  C        10.5095531158        6.3995836996        3.3098685636
  C         9.7597076884        5.3734612942        3.8602851786
  C         9.8486573426        4.9250118587        5.1889297374
  C        10.6540672905        5.6198795154        6.0410585937
  C        11.3191788469        6.7558916854        5.6259199906
  C        11.2079290501        7.1724746111        4.2631623339
  H        11.9112419142        7.8536041863        3.8722595273
  H        11.8191582150        7.3827451464        6.3565095544
  H        10.7083682911        5.3380621650        7.0939201774
  H         9.1566867178        4.2160893748        5.6207466486
  H         9.2323551989        4.7688655683        3.1175293760
  C        12.7490132949        5.5378919475        1.8291722944
  C        13.8026993431        4.9124083343        1.2159764581
  C        13.8387616554        4.7968010482       -0.1793473742
  C        12.7657439017        5.3920036307       -0.8407008618
  H        12.6382047823        5.2798803417       -1.9106051712
  H        14.5670623207        4.1342534778       -0.6180351869
  H        14.5656076957        4.3199498311        1.7553420838
  H        12.6557446607        5.4734708987        2.9081440831
  C        10.5499359105        6.4677463486       -2.4533310814
  C         9.5813449559        5.6603993294       -3.0390715522
  C         9.5591210842        5.3378641715       -4.4030441163
  C        10.6052521751        5.8597038467       -5.2176944117
  C        11.6230612439        6.6769982959       -4.7098714046
  C        11.5787344889        7.0377642447       -3.3174578655
  H        12.2943261121        7.6718084151       -2.9295693069
  H        12.4660628816        7.0049322346       -5.3499803222
  H        10.6306205146        5.6352881564       -6.2979748117
  H         8.6628169220        4.9962146477       -4.9721970704
  H         8.7394749953        5.3093862030       -2.5049222091
  C        16.8035848778        7.5567825337        1.2159323483
  C        15.8152119834        8.2424285065        1.9384858261
  C        14.7043763852        8.8116397066        1.3133673544
  C        13.6112998200        9.2369775095        2.0890461684
  C        12.5077783537        9.7545639640        1.5205828678
  C        15.9283091728        8.5279997034        3.4326509564
  C        16.6699828924        9.6094198005        3.9227603408
  C        16.5853726101       10.0408142671        5.2478341442
  C        15.8854341170        9.2881795983        6.1792624632
  C        15.0988379727        8.2125138616        5.7246364772
  C        15.2109406290        7.8083041728        4.4101905010
  H        13.6283798211        9.0871704657        3.1792581954
  H        11.7768960625       10.1823493893        2.1546006851
  H        17.2389978045       10.2698407724        3.2219990122
  H        17.1577368592       10.8156243119        5.7315384156
  H        15.9924052831        9.5786619197        7.2643548825
  H        14.3450255764        7.7484512140        6.4121473805
  H        14.6516105487        6.9032380248        4.0970871971
  C        16.7719395073        7.6334324593       -0.2624550654
  C        17.7258158250        6.9093170776       -1.0565566988
  C        18.9052246577        6.3927403432       -0.4392974503
  C        18.9317106581        6.2787619497        0.9944513152
  C        17.8607641882        6.7760046510        1.8189673075
  C        14.6902179456        8.9257648456       -0.1337497731
  C        15.7614334447        8.3868005435       -0.9123004470
  C        15.8457955705        8.7504109824       -2.3697830432
  C        16.8059510539        9.6859269875       -2.7068876309
  C        16.9498418672       10.2026663639       -3.9829950673
  C        16.1554409506        9.6601121217       -4.9891820839
  C        15.1111869610        8.7814712360       -4.6803663418
  C        14.9473632862        8.3822292647       -3.3643021598
  H        14.1919159102        7.6675287041       -3.0360774839
  H        14.5433196488        8.3932721173       -5.5274080219
  H        16.2561240959        9.9477686093       -6.0247336462
  H        17.7507245309       10.8649392195       -4.2489077082
  H        17.4853210182       10.1455477541       -1.9418481655
  C        13.5161731026        9.5233146568       -0.7006430828
  C        12.4901504841        9.9982273738        0.1166149375
  H        11.5125543704       10.3769377549       -0.2426727286
  H        13.4761536066        9.5930562689       -1.7634822600
  C        17.9277144262        6.3293634179        3.2977303000
  C        17.1954788715        5.2197561753        3.6520591776
  C        17.2169672260        4.7842199854        5.0251685378
  C        18.1067965363        5.3759455808        5.9241730936
  C        18.8896199005        6.4816335772        5.5660900904
  C        18.7034270568        6.9668541578        4.2789373442
  H        19.0821010641        7.9561639562        3.9577282780
  H        19.5204900301        6.9326481325        6.3159820245
  H        18.0654082088        5.0750720276        6.9967717005
  H        16.5750858422        3.9575749618        5.3808478018
  H        16.6764784719        4.5455630658        2.9736817307
  C        20.0970505094        5.7308443334        1.6634731202
  C        21.0858192530        5.1214555104        0.8648965878
  C        21.0533833668        5.1970048222       -0.5479745261
  C        19.9922826936        5.8219689581       -1.1613742327
  H        20.0514129637        5.9028169035       -2.2378188740
  H        21.8370864755        4.7854666722       -1.1408167027
  H        21.9257316159        4.4751833385        1.2533196266
  H        20.0495386556        5.5874068297        2.7387953383
  C        17.5334421745        6.6350541619       -2.4423775358
  C        16.4995867028        5.6688765732       -2.8027086552
  C        16.2782636500        5.2832083625       -4.1094137300
  C        17.1441061115        5.7107001225       -5.1048305449
  C        18.1818950215        6.5942217892       -4.7546531706
  C        18.3208352404        7.1380450627       -3.5236804055
  H        19.0046749985        7.9212313558       -3.3413791257
  H        18.7053793922        6.9424213536       -5.6861729158
  H        17.0400481504        5.3539864033       -6.1302822814
  H        15.3977306168        4.6203543053       -4.2848701629
  H        15.9344642097        5.2682331557       -1.9748266573
