140

  C         4.8486407061       -1.2151967026       14.2218157651
  C         5.9062629458       -0.5295846242       14.8498059617
  C         6.9999927649        0.0450633804       14.1625774134
  C         8.1122269671        0.6461905209       14.8462791773
  C         9.2181118912        1.2294655064       14.1655994017
  C         5.6802456223       -0.1012252876       16.2628172602
  C         4.9340786429        1.0689864802       16.4921330163
  C         4.7654819412        1.5813192767       17.7812319812
  C         5.3561770327        0.9509323545       18.8905008081
  C         6.3806788898       -0.0432529694       18.6464407392
  C         6.4574971221       -0.6265178526       17.3024024129
  H         8.1180738713        0.6707882861       15.8843357247
  H         9.9720662440        1.8061877085       14.7169421468
  H         4.4267363152        1.5675533417       15.5770545106
  H         4.0945896286        2.4016473728       17.9977091193
  H         5.2001941141        1.4640479843       19.8571248618
  H         6.9799637691       -0.3957119409       19.4755513462
  H         7.2612433888       -1.2745837168       17.0342587216
  C         4.8596951693       -1.2537211611       12.6992125684
  C         3.7822801941       -1.8666029090       12.0169926902
  C         2.7302616520       -2.3771217377       12.7223272850
  C         2.7542713695       -2.5097109231       14.2136744602
  C         3.8307398327       -1.9418541258       14.9249230008
  C         7.0488451290       -0.0173685727       12.6914272681
  C         5.8854776647       -0.5489738540       11.9826155551
  C         5.7493153662       -0.2340895962       10.5155687098
  C         5.0157874355        0.8975923926       10.0608216507
  C         5.1357618319        1.2794444824        8.6766351726
  C         5.9467187608        0.5806900297        7.7729660794
  C         6.6888751265       -0.5143089900        8.2607508170
  C         6.5222556039       -0.9182592444        9.6253062934
  H         7.0490121825       -1.8131452162        9.9031763741
  H         7.3988741270       -1.0059246219        7.6539899644
  H         6.1905480993        0.9685678948        6.7846302172
  H         4.5931393958        2.1637916023        8.3235607524
  H         4.3620338891        1.3936932905       10.7748402674
  C         8.2277596094        0.5330505447       12.0373646526
  C         9.2562892901        1.2022638341       12.7792341720
  H        10.1406327051        1.4130403404       12.2257228188
  H         8.2234136163        0.4684073972       10.9339811904
  C         3.9639129694       -2.2086000337       16.3888735640
  C         4.6004132486       -3.3809624150       16.8290631749
  C         4.4122367830       -3.8344227222       18.0881888829
  C         3.5652350749       -3.1481329461       18.9076520335
  C         2.8297219608       -2.0389964915       18.5509359925
  C         3.0742308461       -1.5431373159       17.2886109921
  H         2.4820374281       -0.7430937669       16.9698936102
  H         2.1312700705       -1.7393512185       19.2805671357
  H         3.2372131616       -3.6025015337       19.8642530595
  H         5.0200285237       -4.6787779795       18.4765878952
  H         5.1493573837       -4.0608574586       16.1114560309
  C         1.7237365973       -3.2902012241       14.8786343880
  C         0.6706815017       -3.8703691894       14.1283804739
  C         0.6898541038       -3.7437550725       12.7320064796
  C         1.6104960625       -2.9696700422       12.0404921103
  H         1.4622477489       -2.8869558511       10.9830072167
  H        -0.0596857784       -4.3186569523       12.1018443028
  H        -0.2285372029       -4.3146316987       14.5754543927
  H         1.7785635842       -3.5024838843       15.9624656803
  C         3.9447143270       -2.3009306202       10.5249674409
  C         4.6322733836       -3.5705226736       10.2732151190
  C         4.5632253116       -4.2130642714        9.0547224579
  C         3.8906564307       -3.6576692621        7.9468553504
  C         3.3098306570       -2.4278822877        8.1861350483
  C         3.2226179971       -1.7752922823        9.4296031171
  H         2.6438569998       -0.8625607698        9.5606990372
  H         2.7464650107       -2.0500982400        7.2882591299
  H         3.8632685073       -4.0645830362        6.9343923943
  H         5.2068986127       -5.1445338460        9.0474808232
  H         5.1158844048       -4.0914788872       11.0897101736
  C        11.9214338191       -1.2817685722       13.8167610694
  C        12.9065493377       -0.5123586968       14.4697413420
  C        13.9991399879        0.0012533999       13.7360248410
  C        15.0758883089        0.7522116783       14.3133345490
  C        15.9924782454        1.4154836298       13.5529824793
  C        12.8108624358       -0.2351735843       15.9407399147
  C        12.2973669231        0.9201261239       16.5111919004
  C        12.4643846557        1.1583518893       17.8236068428
  C        13.1251053890        0.2549725693       18.6605063995
  C        13.6977504540       -0.9282922707       18.0737974364
  C        13.5304509266       -1.1448767365       16.7339072107
  H        15.2668313353        0.6549989449       15.3818476912
  H        16.8836174510        1.9637001743       14.0221399605
  H        11.8252186932        1.6951352494       15.9228422736
  H        12.0425507981        2.0544513056       18.2746892808
  H        13.2393103656        0.5197273606       19.7548508964
  H        14.1668774427       -1.6966650853       18.6979776541
  H        13.8413241971       -1.9658225097       16.1921121522
  C        11.8892334159       -1.3722321960       12.3547086585
  C        10.8531478904       -2.1597466137       11.6852836746
  C         9.8294174009       -2.7315863982       12.4635318358
  C         9.8157797190       -2.5221684111       13.9073902061
  C        10.8772125732       -1.8279136179       14.6091445923
  C        13.9887429313       -0.0783874947       12.2162600675
  C        12.9062492438       -0.7246694568       11.5923435119
  C        12.8979629877       -0.4038630958       10.0794088469
  C        12.0887145248        0.6455270639        9.6120568131
  C        12.0011448305        0.9871790795        8.2864346779
  C        12.9456548776        0.4661920420        7.3250181448
  C        13.7925683553       -0.5421016507        7.7292939442
  C        13.7384681374       -0.9563783781        9.0930722749
  H        14.5301887223       -1.6819866253        9.4894685339
  H        14.5363512778       -1.1585989342        7.1589510373
  H        12.9569134144        0.8021771144        6.2963119586
  H        11.3765163240        1.8476404461        7.9361707498
  H        11.3615266827        1.0952907314       10.2445993028
  C        14.9522894429        0.6821778820       11.4915455896
  C        15.8821313070        1.4362970831       12.1031753153
  H        16.6288107073        1.9319281869       11.5393775055
  H        14.9562024400        0.5660285417       10.4380319921
  C        10.8740641582       -2.0945370100       16.1176724789
  C        11.3995903691       -3.3202219965       16.6382310809
  C        11.1202532441       -3.7668856864       17.9169064377
  C        10.3551418344       -2.9428830999       18.8020847938
  C         9.8693359901       -1.7231696945       18.2977252083
  C        10.1141782633       -1.3299064313       16.9732323946
  H         9.6806294188       -0.3500077951       16.5173495111
  H         9.1569020678       -1.1487095810       18.9490622157
  H        10.1584361981       -3.3064338289       19.7995473806
  H        11.4672411576       -4.7849922181       18.1680642831
  H        11.8162989404       -3.9559390441       15.8723298072
  C         8.6729586660       -3.0352298481       14.6437152372
  C         7.7181748273       -3.8362890299       14.0472323430
  C         7.7745300520       -4.0266688745       12.6618191896
  C         8.7847288906       -3.4941602310       11.9329903833
  H         8.6990596247       -3.4744796757       10.8237944781
  H         7.0827995170       -4.6142215324       12.0468889946
  H         6.9309346336       -4.2579399254       14.5940495340
  H         8.6733864968       -2.9377987593       15.7376294171
  C        10.9935394809       -2.5619017690       10.2443876589
  C        12.0156068717       -3.4171915018        9.9044948672
  C        12.1047623252       -3.9511961774        8.6279590839
  C        11.1368022026       -3.7009500219        7.6173257272
  C        10.1242199928       -2.8043427518        7.9213888532
  C        10.0541959736       -2.2476108124        9.2538370943
  H         9.2093752883       -1.6490798803        9.4089239515
  H         9.3891288980       -2.4365302124        7.2559607464
  H        11.0489755623       -4.0716987017        6.5986869694
  H        12.9747856201       -4.6069726378        8.4770666969
  H        12.7751324116       -3.6948800184       10.6272599394
