140

  C         2.8197311488        0.2901748379       14.6924361863
  C         3.9286421600        0.9211428495       15.3470587098
  C         5.1299741539        1.2995065965       14.6789652994
  C         6.2070410531        1.9396915492       15.2911499436
  C         7.2253047286        2.6135957011       14.5788878830
  C         3.8561379540        1.4216624464       16.7456172749
  C         2.9236063765        2.4704426346       17.1138736158
  C         2.8406248110        2.9076737712       18.4522732976
  C         3.6143401440        2.3811233116       19.4478579486
  C         4.5030878745        1.3693509753       19.1555249488
  C         4.6908008024        0.9994204835       17.8119450074
  H         6.3650173276        1.9575402426       16.4027705516
  H         8.0554643532        3.1200055445       15.0580075743
  H         2.1962531787        2.8611639506       16.3884562362
  H         2.1073967362        3.6121987265       18.8623172456
  H         3.2451043821        2.7196477237       20.3635980145
  H         5.0215157322        0.8235355387       19.9529578362
  H         5.3633073096        0.1627603520       17.6160377241
  C         2.8461624780        0.2807799223       13.2354361813
  C         1.7906223560       -0.4301630841       12.5106706856
  C         0.6743182813       -0.9127056424       13.1418485598
  C         0.6715314633       -0.9542561876       14.6196305292
  C         1.7292980439       -0.3588398419       15.3656240446
  C         5.0830609549        1.2569634819       13.2040809630
  C         3.9292529970        0.8039152530       12.4691718407
  C         3.8464260098        1.1697442476       10.9789606440
  C         2.9839306405        2.2664560364       10.5079899607
  C         2.9995284972        2.7704185675        9.2153545925
  C         3.8716977640        2.1762554966        8.2580430320
  C         4.7188256747        1.1507669689        8.6909246344
  C         4.7086576564        0.6360400504        9.9718813071
  H         5.3429374918       -0.2167358660       10.1804582253
  H         5.3964022264        0.6085733343        8.0696684653
  H         3.9839789837        2.4493450161        7.2221974007
  H         2.4147127616        3.6144616684        8.8008019766
  H         2.3390469652        2.8273736723       11.1569383656
  C         6.1864648438        1.9091111779       12.4854688853
  C         7.1515767959        2.6571265698       13.1449313724
  H         7.8718355941        3.2285269898       12.5944686613
  H         6.1264814009        1.9413952939       11.4003511472
  C         1.8406437706       -0.7799557929       16.8640515608
  C         2.6414998939       -1.8391518157       17.2009961660
  C         2.6790920051       -2.2913874060       18.5572870283
  C         1.7935694098       -1.7285633925       19.4462160059
  C         0.9265090750       -0.6663365481       19.0961338455
  C         1.0620676609       -0.1911465988       17.8063900666
  H         0.4299000024        0.6499866921       17.5254696628
  H         0.1271899228       -0.3557857626       19.7622970589
  H         1.6790360643       -2.1742043913       20.4985591903
  H         3.3589365861       -3.1340516709       18.8286786130
  H         3.3056965898       -2.3326607444       16.5177659680
  C        -0.4256635030       -1.6567774530       15.2230268789
  C        -1.4797685571       -2.1431927222       14.5011284660
  C        -1.4224733116       -2.1463612930       13.0925059942
  C        -0.3518564516       -1.5843150896       12.4524843067
  H        -0.3204656026       -1.6630751182       11.3848411577
  H        -2.1415582560       -2.8510686720       12.6077860153
  H        -2.3537646170       -2.6630548133       14.9804042119
  H        -0.4127777249       -1.7720748797       16.2858620655
  C         1.8846469448       -0.7551758028       10.9577532213
  C         2.8024942081       -1.7424454900       10.5973663991
  C         2.7947491370       -2.1264678507        9.1915190208
  C         1.9330418969       -1.4426825381        8.3130275425
  C         1.1230191285       -0.3755094613        8.7199428361
  C         1.0336873893       -0.0972060202       10.0372362991
  H         0.4593236924        0.7903608803       10.3804478417
  H         0.4564241523        0.0060484274        7.9103239368
  H         1.9422947911       -1.7923661936        7.2488090998
  H         3.4006954892       -2.9973237732        8.7713693035
  H         3.4199329559       -2.2160207446       11.3113749256
  C         9.8045794897        0.2348859078       14.5053479252
  C        10.7994101074        0.9876457560       15.1508623943
  C        11.8661687625        1.5817853555       14.4085628964
  C        12.9904761480        2.2398106586       15.0693002965
  C        14.0735048062        2.7070973688       14.3419105739
  C        10.8088575759        1.4135880223       16.6070627243
  C         9.8568494131        2.2597185704       17.1069855506
  C         9.8650435032        2.7384973907       18.4776713501
  C        10.9725749409        2.4543581817       19.2312135000
  C        12.0315053244        1.6710666013       18.7084278167
  C        11.9080238375        1.0665339959       17.4750009834
  H        13.0944783955        2.3499042309       16.1551602171
  H        14.7919101237        3.1956631801       14.9499766075
  H         9.0715893015        2.6453229848       16.4484504678
  H         8.9871299956        3.2339459174       18.8719155876
  H        11.0798961362        2.8164457205       20.2430769626
  H        12.9271931279        1.6153839311       19.2919418826
  H        12.6270165471        0.3697673947       17.0923738546
  C         9.6791350085        0.2966337711       13.0322884055
  C         8.5873207253       -0.3575038976       12.4355352900
  C         7.5905616915       -0.9984722634       13.1675180187
  C         7.7687407770       -1.1520294060       14.6399412567
  C         8.9648174667       -0.5933806887       15.2926856291
  C        11.8846826722        1.5156550885       12.9613571242
  C        10.7025525127        1.0475621520       12.2983982046
  C        10.7513334661        1.2995682864       10.7799503690
  C        10.1535554212        2.3752971621       10.1466376258
  C        10.4547461626        2.8318463393        8.8572736356
  C        11.4281916541        2.1023484216        8.1442110665
  C        11.9933509871        0.9740026348        8.7511186708
  C        11.6288140640        0.5287808116       10.0002964360
  H        12.1346154746       -0.3024810043       10.5088324576
  H        12.8200702879        0.4497589389        8.2348276780
  H        11.7322170519        2.4910276276        7.1831102332
  H         9.9798330258        3.7836632077        8.4961033430
  H         9.5411422984        3.0422400558       10.6818994628
  C        12.9495305703        2.1769287819       12.2266699216
  C        14.0726596607        2.6788769598       12.8895101831
  H        14.9245736691        3.1134481197       12.2829596746
  H        13.0213826255        2.1067154998       11.1624588332
  C         9.0353110153       -0.9376695036       16.7819940212
  C        10.0069612521       -1.8542169097       17.2170991627
  C        10.1892614195       -2.0610039011       18.5515191040
  C         9.4270884434       -1.3905751209       19.5271991445
  C         8.3769744121       -0.5789255754       19.1376763154
  C         8.1354285394       -0.4195666738       17.7626052066
  H         7.3570174400        0.3159960437       17.4437992672
  H         7.7248797267       -0.1089531689       19.8167806173
  H         9.5848465175       -1.5886495836       20.6199108825
  H        10.9046600015       -2.7629398351       18.8685972052
  H        10.5923419314       -2.4617960533       16.5265516996
  C         6.7501555030       -1.9022502825       15.3709761656
  C         5.6903610849       -2.5112317538       14.7233492341
  C         5.5706879264       -2.3400744614       13.3099280451
  C         6.4029621184       -1.5866589813       12.5121593550
  H         6.3485229444       -1.4207099658       11.4711550951
  H         4.7938466578       -2.8551885009       12.7891039016
  H         4.8196303460       -3.0279032957       15.2363509857
  H         6.8361739295       -2.0217313797       16.4485323938
  C         8.5906817504       -0.6809686863       10.9662516530
  C         9.4404468576       -1.7634655367       10.7340975642
  C         9.5536250432       -2.3848175337        9.4578375539
  C         8.6547955483       -2.0084977318        8.4501996294
  C         7.8612845828       -0.9128341767        8.6716192685
  C         7.8339702533       -0.1976228806        9.9247482719
  H         7.2478696571        0.6796840992       10.0367414259
  H         7.1672344451       -0.5654842310        7.8902355080
  H         8.6527667355       -2.5371346815        7.4912553580
  H        10.2142126508       -3.2574475153        9.3197871232
  H        10.0041783136       -2.0448274265       11.5838285740
