140

  C        10.4560817914        7.1103647250        0.8881444557
  C         9.4587789331        7.9228598814        1.5050495235
  C         8.4048677350        8.4857846444        0.8212857907
  C         7.2964803525        9.2271803324        1.3982761046
  C         6.2561950443        9.6898695251        0.6881614694
  C         9.5219414102        8.3599457917        2.9344728983
  C        10.3059234882        9.4234658384        3.2874213855
  C        10.3269151195        9.9252625676        4.6446243308
  C         9.4552765994        9.2677547061        5.5322758717
  C         8.6988743754        8.1627819533        5.1400923472
  C         8.7134779065        7.6618936495        3.8229164937
  H         7.4088738276        9.3345464563        2.4542257112
  H         5.5013798984       10.3336275660        1.1730765763
  H        10.8433119206        9.8778056815        2.5015460073
  H        10.9904591650       10.7465258655        4.9689745348
  H         9.5400094788        9.5256280659        6.6447893956
  H         8.1343673459        7.6263749987        5.8341218024
  H         8.0966310334        6.8163909706        3.6124118437
  C        10.4988035590        7.1423946741       -0.6396197452
  C        11.6378698731        6.5406417943       -1.3184589889
  C        12.6965696299        5.9864488866       -0.4870938623
  C        12.6415408836        6.0042249135        1.0256558853
  C        11.4682834804        6.4151146343        1.6506374781
  C         8.4226405543        8.4700162730       -0.6409454481
  C         9.5646217884        7.9807495361       -1.3618170083
  C         9.8426857884        8.4387935393       -2.7588945348
  C        10.6534572827        9.5975802025       -2.9312497421
  C        10.8090501680       10.0479785862       -4.1920566857
  C        10.0113579668        9.7990250352       -5.2665299389
  C         9.1775219822        8.7020616506       -5.1184869019
  C         9.1058687942        8.0260475227       -3.8961858927
  H         8.3847844789        7.1634544598       -3.8630921356
  H         8.5077133514        8.3517466231       -5.9368807754
  H        10.1523248187       10.4086725999       -6.1741472631
  H        11.6444596112       10.7759450714       -4.3327664019
  H        11.1815332241       10.0044642781       -2.0778250280
  C         7.3544331501        9.0471487770       -1.3374970287
  C         6.2145751325        9.5275394532       -0.6899902911
  H         5.4518390042        9.9729639736       -1.3843439204
  H         7.3825769331        9.1311859554       -2.4339751960
  C        11.3589818316        6.0309586813        3.1340845938
  C        10.4924729754        5.0166495504        3.4731561555
  C        10.5806635619        4.4389751811        4.7713033589
  C        11.4210543880        5.0408260884        5.7283662441
  C        12.1461068850        6.2140381420        5.3732721282
  C        12.1729615344        6.6697434264        4.0527857364
  H        12.7465271203        7.5436488722        3.7246758725
  H        12.8037114160        6.8260906409        5.9886326963
  H        11.4748914593        4.7287651365        6.7578395344
  H         9.8741780146        3.6898351430        5.1359837379
  H         9.7960359295        4.8068378640        2.7024471617
  C        13.7224204946        5.4139032322        1.7300953636
  C        14.8209879526        4.8968650053        1.0793220346
  C        14.9387297036        4.9532859541       -0.3111421932
  C        13.8955389827        5.4341456724       -1.0494531974
  H        13.9540402122        5.3999688303       -2.1821937057
  H        15.7887914349        4.6148473717       -0.8489371531
  H        15.5780639998        4.3255146587        1.5876276432
  H        13.7277766086        5.3252194326        2.8447896595
  C        11.5726415013        6.1887186405       -2.7480661861
  C        10.6727717280        5.1444090075       -3.1044519855
  C        10.6021329561        4.6755905816       -4.4732930445
  C        11.4322610939        5.3324124403       -5.4012261220
  C        12.4225662968        6.2537867163       -5.0101642517
  C        12.4396761231        6.7491908516       -3.7314187171
  H        13.1898525342        7.5881687966       -3.4428166397
  H        13.0085287089        6.7124067087       -5.8318596690
  H        11.4418580747        5.0501317560       -6.4688940498
  H         9.9123374251        3.8459759793       -4.6486058909
  H         9.9892145454        4.6641195325       -2.3791295072
  C        17.8114385713        7.3976570676        1.0365275671
  C        16.6768845566        7.9177583488        1.6715426784
  C        15.5709690670        8.4130427286        0.8622665990
  C        14.3711569204        8.8220196085        1.6166672923
  C        13.4053747760        9.4863380948        1.0053624646
  C        16.6800871248        8.3274001589        3.1661544747
  C        17.5131925616        9.3047464293        3.6870014186
  C        17.6510776209        9.5142946174        5.0813365958
  C        16.8352155421        8.8682853275        6.0611339518
  C        15.8440382348        8.1034586246        5.5397360579
  C        15.7747462712        7.7997792817        4.1019300248
  H        14.2388129078        8.6062891159        2.6708151701
  H        12.4714024716        9.7341576246        1.4967881071
  H        18.1999399338        9.7925417247        2.9902032613
  H        18.5027192006       10.0672016850        5.4840605817
  H        16.9365709779        9.1266430471        7.1357724910
  H        15.1870046286        7.6494075804        6.2777339244
  H        15.0083983229        7.0913266807        3.7509162011
  C        17.8806241828        7.4374225790       -0.4291752655
  C        18.8882744137        6.6816045789       -1.0533139369
  C        19.9364410007        6.0607865046       -0.3760938815
  C        19.8823564163        6.0059019702        1.1269655233
  C        18.7179727726        6.6185823721        1.7611279151
  C        15.6178130264        8.4734429812       -0.5709279588
  C        16.8623040123        8.0553676402       -1.1760509673
  C        17.0543668324        8.3411493249       -2.6727371338
  C        17.8447657653        9.4176268310       -3.1095906839
  C        17.7238341224        9.9294241971       -4.4150589268
  C        16.7630605842        9.2701520810       -5.2756974604
  C        15.9629267699        8.2458805632       -4.8417450017
  C        16.1796839441        7.7154428259       -3.5929192630
  H        15.6072988447        6.8626091486       -3.2903615567
  H        15.2137764696        7.7949289867       -5.4311346313
  H        16.4957700002        9.8013413397       -6.1846293188
  H        18.2249656669       10.8782154255       -4.6631783141
  H        18.3951567052        9.8823607531       -2.2939695510
  C        14.5296478337        9.1906043424       -1.1751874508
  C        13.4955177098        9.7041095152       -0.3854353678
  H        12.6723220464       10.2348758864       -0.8150658940
  H        14.5910720452        9.2808114002       -2.2240337421
  C        18.5444468326        6.1901481166        3.1419642251
  C        17.7278777514        5.1798774352        3.5960001707
  C        17.6921214737        4.7110467661        4.9398532586
  C        18.6277090662        5.2378555946        5.8090784480
  C        19.5214004166        6.2233535980        5.4053002592
  C        19.4588591153        6.6856704594        4.0714675106
  H        20.1041050107        7.4358099486        3.7161990457
  H        20.1953310409        6.7233107591        6.0879503404
  H        18.6678507208        4.9834130714        6.8949211415
  H        16.9124399339        4.0458173560        5.2578719688
  H        17.0355036549        4.7415133601        2.8911181716
  C        20.9078495576        5.2655531933        1.7786646596
  C        21.9807412624        4.6716422904        1.1766368116
  C        22.1232399341        4.8046911317       -0.2656865233
  C        21.0728666591        5.3985971443       -0.9861193836
  H        21.1435893113        5.5714307859       -2.0602430719
  H        22.9814718525        4.3387343656       -0.7433247761
  H        22.7539301579        4.0925475461        1.7054893127
  H        20.8142286828        5.2683142634        2.8636070374
  C        18.8326399047        6.2530150293       -2.5112988852
  C        18.1553197174        5.0366565722       -2.8698219997
  C        18.0188731575        4.6346505516       -4.2035757685
  C        18.6640007817        5.3385879150       -5.2323359747
  C        19.4516957020        6.4638569869       -4.8413286854
  C        19.4730886703        6.9501867070       -3.5490816338
  H        19.9097920159        7.8646696620       -3.2095422970
  H        20.1039058464        6.9852189820       -5.5451603182
  H        18.6471742118        5.0848471613       -6.2984646814
  H        17.3421904777        3.7897984286       -4.4334171506
  H        17.6831723069        4.3870575679       -2.2115128386
