140

  C         4.0516336997       -0.4019605401       14.4030853777
  C         5.1674768300        0.1406105084       15.1240867519
  C         6.2921587474        0.6747857081       14.4656940926
  C         7.4568214375        1.2106120637       15.1032175431
  C         8.3894780545        1.9540861631       14.4309286698
  C         5.0971762936        0.5732206570       16.6039431604
  C         4.2228014379        1.6204942822       17.0032993652
  C         4.0378961284        2.0012567965       18.2832263020
  C         5.0003186778        1.5961211383       19.2399145618
  C         5.9633975770        0.6401558409       18.8277286867
  C         6.0016831710        0.1021808418       17.5512485120
  H         7.5882737065        1.1108742098       16.1879426242
  H         9.2193033806        2.3540455738       14.9883526725
  H         3.5493447440        1.9984967272       16.2514002065
  H         3.3519878904        2.7565163807       18.5731860131
  H         5.0078487445        1.8832167270       20.3172097820
  H         6.6301786338        0.2134994800       19.6558257684
  H         6.7258787032       -0.6850361398       17.2832674063
  C         4.0716753618       -0.4014316949       12.9283873886
  C         3.0296607858       -1.1655682912       12.2801819012
  C         1.9103057752       -1.6953384224       12.9955580399
  C         2.0336086062       -1.8252825068       14.4228273236
  C         3.1000312221       -1.2523758144       15.0547968819
  C         6.3360478227        0.7019471789       12.9854446603
  C         5.1713785331        0.3288209986       12.3076029868
  C         5.0781520282        0.6916536705       10.8782628520
  C         4.2446173238        1.6727323581       10.5198528324
  C         4.2311060763        2.1909929496        9.1949941662
  C         4.9050114873        1.4872056138        8.2185264331
  C         5.8135436167        0.4064494973        8.5498519384
  C         5.8850962369        0.0253702341        9.8925603712
  H         6.5393597032       -0.8238083998       10.1841579694
  H         6.4763393300       -0.1465723034        7.9506684670
  H         4.8504179053        1.8151888666        7.2070513515
  H         3.4203206664        2.8786727206        8.9795131679
  H         3.6108745203        2.0380136712       11.2515650515
  C         7.3661149886        1.5044396474       12.3025668137
  C         8.3169024828        2.1510905761       13.0249100327
  H         9.1200184186        2.6052281901       12.5771752489
  H         7.3241761665        1.5462178093       11.2246867789
  C         3.2241657989       -1.5027596716       16.5420557974
  C         3.9902068983       -2.5571349104       17.0221181088
  C         4.0305392891       -2.9983690253       18.3470686648
  C         3.0634790891       -2.4891820615       19.2508360853
  C         2.2086823969       -1.4348619835       18.8251613595
  C         2.3862510533       -0.8230890858       17.5371361239
  H         1.8612203530        0.0833581275       17.2087937108
  H         1.4534275687       -1.0238923032       19.5629106179
  H         2.9418742240       -2.8165745665       20.2793105007
  H         4.7005420123       -3.8375167171       18.6553359357
  H         4.7625381632       -2.9909967968       16.3958147308
  C         0.9584479134       -2.5246931560       15.1619814508
  C        -0.0033330324       -3.1977599722       14.4435789211
  C        -0.0067928130       -3.1232243036       13.0036188048
  C         0.8742532347       -2.4514665776       12.3132541855
  H         0.8238129350       -2.3994711755       11.2634683470
  H        -0.7501747564       -3.7220429706       12.4746447889
  H        -0.8530145429       -3.7049224916       14.8991891279
  H         1.0285857051       -2.4896320538       16.2656181397
  C         3.1940202150       -1.5940430555       10.8094612282
  C         4.1666694383       -2.5947215000       10.4456160850
  C         4.1747379963       -3.1790519014        9.1836349213
  C         3.3388761299       -2.7709755715        8.1801343713
  C         2.3843851737       -1.7545602314        8.4500261306
  C         2.3638251081       -1.1548229259        9.7698854115
  H         1.6269893023       -0.4172399997        9.9018346969
  H         1.8083517749       -1.2449036994        7.6861570150
  H         3.5730195756       -3.1044058826        7.1758518738
  H         4.9089392998       -3.8968434901        9.0667166631
  H         4.9007800021       -2.9584509352       11.1378629822
  C        11.5248662773       -0.6923749791       14.0955775140
  C        12.6308388041       -0.1082954140       14.7698734811
  C        13.6938766837        0.4706100613       14.0766089685
  C        14.8006859789        1.0858170314       14.7678831643
  C        15.8425280858        1.7385721251       14.1009042889
  C        12.4998841495        0.3468002783       16.1866739776
  C        11.7998279168        1.5165144633       16.3674928305
  C        11.6077157628        2.1333490173       17.6344377016
  C        12.0788047996        1.4848966057       18.7426229221
  C        12.6960893920        0.2291214483       18.6202625333
  C        12.8918143219       -0.3695221630       17.3530218904
  H        14.7739357150        1.1911028304       15.8501929219
  H        16.5838931058        2.2302568455       14.6808784687
  H        11.4186967553        2.0527739324       15.4963597777
  H        10.9437663458        2.9304101421       17.7434615453
  H        11.8720876714        1.9438717200       19.6750730176
  H        13.0410965229       -0.2278586457       19.5519431742
  H        13.4335893404       -1.3376540224       17.2735885168
  C        11.5377529367       -0.7947487791       12.6348237768
  C        10.4196849592       -1.3626892033       11.9479763461
  C         9.2990490193       -1.8469873688       12.7059515529
  C         9.3577755601       -1.8828757398       14.1969439446
  C        10.4861410485       -1.3019848323       14.8708710962
  C        13.6736678822        0.4696162517       12.6232187295
  C        12.5697979035       -0.0827451741       11.8976179398
  C        12.3891024858        0.4875439871       10.4458972646
  C        11.3804615776        1.4328794297       10.3246008168
  C        11.2759686558        2.1411574698        9.1305615638
  C        12.1125743976        1.8849314489        7.9972375279
  C        13.0895346143        0.8052384505        8.1076008788
  C        13.1689069687        0.1278730434        9.3133896147
  H        13.8168764303       -0.7031270766        9.3296651504
  H        13.7024327930        0.6027668792        7.2134561964
  H        12.2229109743        2.3937635966        7.0741526736
  H        10.3951754021        2.8534244338        8.9826350452
  H        10.6621264304        1.6690880336       11.0555415806
  C        14.6438158467        1.3395296664       11.9721394348
  C        15.7052053793        1.8825228266       12.6664063429
  H        16.3625886499        2.5642946834       12.1836098985
  H        14.5452661223        1.4636015500       10.8853367414
  C        10.4724402004       -1.6276359451       16.3291138057
  C        11.1827645369       -2.7266968026       16.7382386496
  C        11.0622913306       -3.2816546486       18.0029643091
  C        10.2701179736       -2.6279000231       18.9952773411
  C         9.5600001029       -1.5020223177       18.5819284262
  C         9.6185451453       -1.0255654227       17.2744582234
  H         9.2167480344       -0.0321478804       17.0749890243
  H         8.9638453828       -0.9308940177       19.2870705511
  H        10.3026769733       -2.9245706116       20.0561094473
  H        11.6648721345       -4.1670937858       18.2808697784
  H        11.7955709502       -3.1766520134       16.0112035859
  C         8.2583262956       -2.5888437301       14.9147889623
  C         7.1340227302       -3.0430090060       14.2511312418
  C         7.2214286260       -3.1724835899       12.7938820121
  C         8.2446985632       -2.6009886051       12.0908267379
  H         8.1761432847       -2.6104130439       10.9840828695
  H         6.4085659091       -3.6345131126       12.2119551774
  H         6.3745808871       -3.5993630833       14.7519612823
  H         8.3120409649       -2.6717073555       15.9649844498
  C        10.4183272091       -1.7034760922       10.5259881037
  C        11.2232069490       -2.7002323438        9.9462141087
  C        11.1997810735       -3.0554916479        8.6096204772
  C        10.1775021011       -2.5146468633        7.7989793919
  C         9.4797183074       -1.4019801827        8.2787363736
  C         9.6303732236       -0.9881206483        9.6356604777
  H         9.1145171980       -0.0891864769        9.9311284616
  H         8.8351560663       -0.8006480922        7.5789809880
  H        10.0802701266       -2.9493821375        6.8093954342
  H        11.8383486580       -3.8356636885        8.1637117795
  H        11.9658078832       -3.1935604566       10.5542816934
