140

  C         3.7538481439       -0.2316573902       14.3161843150
  C         4.6500547515        0.6312526041       14.9451379153
  C         5.6802276252        1.1912629016       14.1991220126
  C         6.6724740751        2.0063561671       14.8261788473
  C         7.7184389314        2.5588624931       14.1363235375
  C         4.6206625231        1.0299689303       16.3946807987
  C         3.8718665445        2.1690892382       16.6991110086
  C         3.8931839784        2.7465193153       17.9522619252
  C         4.7748834320        2.2600796962       18.9400428684
  C         5.6099037963        1.2512917878       18.5819042504
  C         5.5892288064        0.6213524298       17.3269592223
  H         6.5889848046        2.0176827362       15.9077124862
  H         8.5994848953        3.0049614169       14.6774506790
  H         3.1606066721        2.5741702583       15.9890714733
  H         3.2115368843        3.6322100912       18.0778162733
  H         4.6314286561        2.4662475893       19.9827333185
  H         6.2586339248        0.8434221479       19.4013992741
  H         6.2925427843       -0.1242694095       17.0479823051
  C         3.6777789432       -0.2336040417       12.8374272419
  C         2.6599631694       -0.9732843238       12.2227764994
  C         1.5656552903       -1.4790135461       13.0017444858
  C         1.6478631842       -1.4528350107       14.4819463704
  C         2.7481741892       -0.8370049194       15.0898286952
  C         5.7694361705        1.0833708648       12.8121180622
  C         4.6671936398        0.4856222441       12.0990628859
  C         4.4598662010        0.7713011671       10.6222847570
  C         3.6991700787        1.9229561833       10.2441537330
  C         3.6602223973        2.3092043782        8.9102361458
  C         4.4623135042        1.6103937779        7.9731406268
  C         5.2518832762        0.5490935890        8.3446453922
  C         5.1976208094        0.1263277243        9.6719622620
  H         5.8281051252       -0.7983585857        9.8487179242
  H         5.7844844304       -0.0789936970        7.6457266985
  H         4.4039952213        1.9486354877        6.9648839323
  H         3.0658185745        3.2088968624        8.6767189023
  H         3.0650445708        2.2741489984       11.0639671661
  C         6.6866463409        1.9532425193       12.0799757580
  C         7.5743866341        2.7354295915       12.7644563581
  H         8.2851518845        3.3508331518       12.2476940634
  H         6.7424322218        1.9747005898       10.9792332960
  C         2.8522983121       -1.0633821884       16.5653777686
  C         3.7919638190       -2.0017401198       17.0892796536
  C         3.8351525796       -2.3509808949       18.4158013219
  C         2.9951040568       -1.6822571197       19.2805418079
  C         2.0632279231       -0.7542149117       18.7885915827
  C         1.9718130065       -0.4667795746       17.4470630533
  H         1.1771037750        0.2188499713       17.1571235120
  H         1.4173560800       -0.2511145152       19.4665096696
  H         2.9114721251       -2.0171585663       20.2739138243
  H         4.6377406195       -3.0585995121       18.7020388297
  H         4.4923316361       -2.3771903503       16.4083670235
  C         0.6439893591       -2.1721273363       15.1574969714
  C        -0.5337938475       -2.7036697585       14.5463126727
  C        -0.5528165710       -2.7578199290       13.1275017860
  C         0.4383457192       -2.1389416362       12.4084548761
  H         0.5191706476       -2.2343721752       11.3357131866
  H        -1.3259290115       -3.2851061836       12.5648002484
  H        -1.2402428681       -3.2369731102       15.1892733394
  H         0.6511525007       -2.1534242414       16.2130577936
  C         2.6018996577       -1.3013941561       10.7218923071
  C         3.1617621119       -2.4859423880       10.1927820521
  C         3.1299199550       -2.7634419045        8.8279793678
  C         2.2895600412       -1.9804202070        7.9889677213
  C         1.6186005396       -0.9050448097        8.5793385479
  C         1.6063520255       -0.6774688926        9.9644769408
  H         1.0557212801        0.1546043002       10.3404603580
  H         0.9342675114       -0.4115253726        7.8970352487
  H         2.1128368826       -2.2532396049        6.9335697419
  H         3.8056350975       -3.5445463614        8.4707876001
  H         3.8864733026       -3.1717357416       10.7223528662
  C        10.7409030476        0.2663454520       14.1692631853
  C        11.8752433028        0.8322883179       14.9016618772
  C        12.9937290446        1.3103315271       14.1683260127
  C        14.1213961961        1.9390594325       14.7944616770
  C        15.2319948668        2.4521798350       14.1061550366
  C        11.8200915726        1.2334544822       16.3817401314
  C        11.1209678432        2.4073542493       16.7195177233
  C        11.1136139225        2.8689077309       18.0692960905
  C        11.9063957166        2.2325755487       19.0651211739
  C        12.6451577467        1.1160801512       18.6649677316
  C        12.6104409319        0.5981412349       17.3438499454
  H        13.9982392060        2.0558219464       15.8854622841
  H        16.0580672208        2.8685149896       14.6742423262
  H        10.4219628712        2.8884588869       16.0154659654
  H        10.4971369055        3.7122420787       18.3557357080
  H        11.7867537883        2.6075540860       20.0717346784
  H        13.2138585332        0.5379474900       19.3687187367
  H        13.2163097242       -0.2715098628       17.0633462841
  C        10.7788822458        0.2190433447       12.6818757837
  C         9.6960102645       -0.4632466309       11.9965883793
  C         8.6421227756       -1.0343811485       12.7725610893
  C         8.6169876544       -0.9652716236       14.1843235914
  C         9.6713937656       -0.4250316348       14.8920466867
  C        13.0315681080        1.2286692148       12.6694765316
  C        11.8674023115        0.8323224853       11.9472617742
  C        11.8399758158        1.1506548732       10.5050984753
  C        11.0652524609        2.2189257945        9.9501085660
  C        10.9843388836        2.4892035679        8.5625991809
  C        11.7277573690        1.7268075354        7.6802057860
  C        12.5780730020        0.7124479915        8.2197754002
  C        12.5946979530        0.4002912215        9.6078350220
  H        13.2109448286       -0.4350100152       10.0349101201
  H        13.3310633478        0.2892884082        7.5754356177
  H        11.6697329030        1.8212390008        6.5689955419
  H        10.2873219156        3.2708344281        8.3159212250
  H        10.4603819709        2.9142100432       10.6222480201
  C        14.2173475900        1.6241359811       12.0369923508
  C        15.2995910448        2.1623395213       12.7296845050
  H        16.2019397882        2.4546098365       12.2091759106
  H        14.2339539577        1.5565842879       10.9406638655
  C         9.8708053262       -0.8425928375       16.3490369006
  C        10.5137211660       -2.0036084849       16.7120553252
  C        10.4285259820       -2.4525554178       18.1045963234
  C         9.8239098641       -1.6758196620       19.0603662887
  C         9.1148342872       -0.5015169590       18.6769067124
  C         9.1036446773       -0.1051471959       17.3471303744
  H         8.5941677977        0.7613348142       16.9643706129
  H         8.4517145880       -0.1235237925       19.4253680655
  H         9.8086869343       -2.0477687902       20.0907248399
  H        10.9375937592       -3.3808028819       18.3103030617
  H        10.8568347020       -2.6497301982       15.9229669420
  C         7.5946300097       -1.7139659073       14.8188805638
  C         6.6361974873       -2.4417839998       14.1899723961
  C         6.6238238666       -2.4983607602       12.7741336677
  C         7.6122538525       -1.8048560626       12.1156227929
  H         7.6080632120       -1.9547988703       11.0143810982
  H         5.9624799949       -3.2473582971       12.3244949173
  H         5.9216013196       -2.9857685430       14.7935190398
  H         7.6192603693       -1.7747239681       15.9065506895
  C         9.6465288294       -0.8103975938       10.5058102927
  C        10.2072966067       -2.0542263716       10.1941810630
  C        10.1904715828       -2.6799814065        8.9777271832
  C         9.5299605440       -2.0177873639        7.9194936794
  C         8.9287188979       -0.8032590247        8.1360842862
  C         8.9426810779       -0.2567766005        9.4368464552
  H         8.3270951439        0.6296206540        9.5666521400
  H         8.3628851608       -0.1826541637        7.4414727159
  H         9.4998885674       -2.5869250023        6.9884264033
  H        10.8643402868       -3.5052272319        8.7757468701
  H        10.7497875641       -2.6111029000       10.9761132262
