140

  C         2.0147919832        0.8176185162       14.8194391750
  C         3.0266577897        1.6458293682       15.5345391559
  C         4.0628326796        2.1921228923       14.7613307126
  C         5.2327352699        2.8810352548       15.4090246923
  C         6.2280087607        3.3896265871       14.6416765637
  C         2.9406602228        2.1044430713       17.0182532793
  C         1.8811312848        2.9843943217       17.3390563582
  C         1.8869594284        3.4268773440       18.6798587674
  C         2.8772580856        3.0043217530       19.5869284561
  C         3.8202824142        2.0558537140       19.2611999807
  C         3.8810245878        1.6105265826       17.9590433041
  H         5.2597497077        3.1858164092       16.4318311660
  H         7.1331176151        3.9011439124       14.8964692004
  H         1.1222277763        3.1142512354       16.5714505240
  H         1.1347617538        4.1146201870       19.0045236381
  H         2.8513470942        3.4252816661       20.5833615861
  H         4.5159039877        1.6411797655       19.9889465534
  H         4.6516435758        0.8818593437       17.7049685512
  C         2.0168155060        0.7770654138       13.3655421477
  C         0.8811844830        0.1444375126       12.7206463155
  C        -0.1966841756       -0.4693706763       13.3961112365
  C        -0.0446340015       -0.5528481622       14.8455036587
  C         1.0798777655       -0.0169626378       15.5214806491
  C         4.1132715472        1.9753425815       13.3213946845
  C         3.0846361470        1.3596367963       12.5826022990
  C         2.9895034805        1.7253593267       11.1294455215
  C         2.1123257537        2.7205779513       10.8713533612
  C         2.0398994486        3.2667630950        9.5550842591
  C         2.9773485250        3.0143661435        8.5211628114
  C         3.9283081916        2.0104129761        8.8600178982
  C         3.8532782209        1.3229358803       10.1273984035
  H         4.4672608200        0.4010437562       10.1295342130
  H         4.6678989716        1.6320345650        8.1317700377
  H         3.0033430886        3.5735564579        7.5948342189
  H         1.1562978242        3.9281604842        9.4567805746
  H         1.5216052646        3.1074374299       11.7027201125
  C         5.2360954789        2.3902938445       12.6187987484
  C         6.2422122778        3.1739471477       13.2135676037
  H         7.0857130612        3.5589298157       12.6416196083
  H         5.2359692590        2.2823374989       11.5284919555
  C         1.0975213536       -0.2164655927       16.9841996664
  C         1.9695747288       -1.1603353911       17.5689318226
  C         1.8434288387       -1.6261186620       18.8766801434
  C         0.9288519156       -1.0628927416       19.7968997275
  C         0.0920472751       -0.0940017637       19.3036605333
  C         0.2365882522        0.3803412021       17.9489268385
  H        -0.3495245152        1.1964449080       17.5927640578
  H        -0.5772712301        0.4895184731       19.8780534228
  H         0.7594296597       -1.3702521647       20.8504454822
  H         2.5876504441       -2.3695199529       19.1845968485
  H         2.7386541531       -1.5804950750       16.9189724982
  C        -1.1023233048       -1.1924603269       15.6150418454
  C        -2.2088048968       -1.6490522622       14.9174162674
  C        -2.3532402170       -1.5136865768       13.5084313468
  C        -1.3567941706       -1.0025786220       12.7250422774
  H        -1.3026791411       -1.0164270581       11.6502044246
  H        -3.1301643256       -2.0272533765       12.9576750308
  H        -2.9992810964       -2.1344779985       15.4209613640
  H        -0.9960400468       -1.3337253251       16.6556143609
  C         0.9155347505       -0.1349653034       11.2428803936
  C         1.7546970369       -1.1471245736       10.8294280271
  C         1.8348222314       -1.6906760691        9.4958649824
  C         1.0250285618       -1.0983604469        8.5698173404
  C         0.1590353356       -0.0743232768        8.9389934444
  C         0.1032871787        0.4438928143       10.2342866367
  H        -0.6048541398        1.2717805431       10.4349637577
  H        -0.4069197980        0.3999404316        8.1240636711
  H         1.0219223589       -1.2098858325        7.4786242624
  H         2.4814316286       -2.5501969891        9.3525792622
  H         2.2851297004       -1.6746914770       11.6075457010
  C         8.9811242902        0.6588839573       14.8420086738
  C         9.9128133079        1.4172652465       15.5439111983
  C        11.1026341052        1.9336674328       14.8096143792
  C        12.2738438342        2.4646087274       15.4080017387
  C        13.2460901346        3.1728531316       14.7052070357
  C         9.7325969076        1.8577759105       16.9582224584
  C         8.8473165935        2.8003977482       17.3669130287
  C         8.9089672076        3.2917736523       18.7070028470
  C         9.8316016684        2.8022186488       19.6539003699
  C        10.7401045647        1.9156914934       19.2130516307
  C        10.7183697303        1.4247543464       17.8933073355
  H        12.4449459079        2.3048277474       16.4887299797
  H        14.1318762047        3.5028619725       15.3060274780
  H         8.1926833089        3.2951178936       16.7330411498
  H         8.2105554811        4.0427634807       19.0246201981
  H         9.6760946348        3.0928553444       20.6847261329
  H        11.4904930616        1.5109438447       19.9718971193
  H        11.3785022774        0.6938743525       17.4829889049
  C         9.0512938903        0.5302829401       13.3833794608
  C         8.0479083727       -0.2773866635       12.7595071375
  C         6.9307302137       -0.7126929807       13.4868092110
  C         6.9521793265       -0.6831880123       14.9791932716
  C         8.0621534943       -0.1633886729       15.6182974535
  C        11.1046179993        1.8194908780       13.3824817397
  C        10.0987975673        1.1476697464       12.6634494711
  C        10.0673890481        1.4359484012       11.2092979242
  C         9.2550124222        2.4566629453       10.7265263612
  C         9.3626655459        2.9641694143        9.4225594535
  C        10.2250591243        2.3249121457        8.5195038424
  C        11.0693113286        1.3095049514        8.9320393440
  C        10.9324920326        0.8317965561       10.2674972435
  H        11.5412855060       -0.0200517756       10.5926946550
  H        11.5849133097        0.6497141546        8.2399054948
  H        10.3228535058        2.6890939149        7.5001048037
  H         8.7211360492        3.8268765357        9.2092429811
  H         8.5533534275        2.9726769576       11.3532488354
  C        12.1078714599        2.6586765856       12.6454390578
  C        13.2101594588        3.1731817213       13.2696938783
  H        13.9889824881        3.7572109567       12.7570165580
  H        12.0135558945        2.5802737561       11.5418562925
  C         8.2121572858       -0.4271960822       17.0577003046
  C         9.3677100785       -1.2576934842       17.3183473878
  C         9.6580729948       -1.6688499684       18.5887030179
  C         8.8054715921       -1.2707532105       19.6571991400
  C         7.7386044856       -0.4037698802       19.3611976753
  C         7.5131493748        0.1061775459       18.1212478099
  H         6.9143407266        1.0060724019       17.9375181200
  H         7.0542290677       -0.1524847226       20.1547908957
  H         9.0724311697       -1.4492598130       20.6859932251
  H        10.5493250279       -2.2279408781       18.8998943833
  H        10.0200316818       -1.4851740267       16.4562804649
  C         5.8131394975       -1.2098115323       15.6624772224
  C         4.7546656794       -1.7467801923       15.0266921390
  C         4.7134557432       -1.7405777471       13.6190707880
  C         5.7425556047       -1.2261731645       12.8691600531
  H         5.5916480779       -1.2586670586       11.7872193543
  H         3.8910765417       -2.2662355833       13.1299808644
  H         3.9427078290       -2.2069725697       15.5813959068
  H         5.8358182038       -1.2669197858       16.7720063058
  C         8.0570186659       -0.6282318339       11.2443822788
  C         8.8842055679       -1.6694241941       10.7909789117
  C         8.7978068161       -2.1455802182        9.4722679464
  C         7.8838054537       -1.4802194959        8.5682037831
  C         7.0744138748       -0.3836558971        9.0081020929
  C         7.1441289475       -0.0214312899       10.3655510460
  H         6.5968211650        0.8394164767       10.6844844253
  H         6.4206193021        0.0530992971        8.2898703332
  H         7.6845056448       -1.9440089949        7.5663530484
  H         9.3506285326       -3.0266773785        9.1937710039
  H         9.5967357630       -2.1406121235       11.5284209581
