140

  C        11.1303215487        7.2553453484        2.3433652569
  C        10.1832808804        8.1127455082        3.0741162532
  C         9.0189812505        8.6457299492        2.3570140756
  C         8.0532355273        9.5259895274        2.9536178287
  C         6.9889181158       10.0645793825        2.2948597137
  C        10.4011106714        8.5275192906        4.5008441304
  C        11.2446957631        9.5466643427        4.9503853939
  C        11.2678740060        9.9998755540        6.3029786329
  C        10.4086448174        9.3587268768        7.1825287167
  C         9.5793133373        8.2916543875        6.7840149432
  C         9.5560139465        7.9220173089        5.4642736276
  H         8.0061992629        9.6217785127        4.0491781243
  H         6.2914315384       10.6887331766        2.7451082391
  H        12.0092125926        9.9828643270        4.3393111438
  H        12.0446137958       10.7296481734        6.6537754444
  H        10.4254457652        9.6879774578        8.2504829239
  H         8.9358377842        7.7275985256        7.5453474339
  H         8.8629669765        7.1193270663        5.1123121962
  C        11.0916904918        7.3120805961        0.8700801420
  C        12.0507477906        6.6382092390        0.0726425861
  C        13.1703031553        6.0391835318        0.7061960148
  C        13.1681687055        5.9597928841        2.1792812163
  C        12.1145824332        6.5204952237        2.9438397867
  C         8.8832686999        8.4810183286        0.9185293349
  C         9.9803027526        7.9706395418        0.2117759603
  C        10.0683946107        8.3426093525       -1.2029799593
  C        10.8591390769        9.5086655784       -1.4750745992
  C        11.0458596800        9.8891160221       -2.7842267133
  C        10.5586910109        9.1594689578       -3.8895390819
  C         9.7272405522        8.0532021879       -3.5203333261
  C         9.4862386116        7.6546543978       -2.2557716494
  H         8.9239206478        6.7550085602       -2.1233528366
  H         9.2000913816        7.4896513409       -4.2845422657
  H        10.6025574802        9.4577076874       -4.9169063233
  H        11.7011477971       10.7002570287       -2.9698454646
  H        11.2124268361       10.0362494749       -0.5895506458
  C         7.6625785713        8.9883034019        0.2404935474
  C         6.7104328466        9.6912606035        0.9330917208
  H         5.8346010297       10.0821317898        0.3862918538
  H         7.4871829650        8.8577487801       -0.7970873041
  C        12.0996320509        6.1260866921        4.3923678125
  C        11.1402048365        5.2326960929        4.8986734756
  C        11.4037800518        4.6993402114        6.2292664608
  C        12.4591093010        5.1405677315        7.0488118932
  C        13.3410205045        6.1043777717        6.5946895448
  C        13.1815073564        6.6026130240        5.2684745010
  H        13.9098772864        7.2610289738        4.8459202228
  H        14.1658138814        6.5073389628        7.1769287375
  H        12.3442102729        4.8631633608        8.1164080836
  H        10.8236424377        3.8937659011        6.5967479280
  H        10.2790504272        4.8453684167        4.3376573081
  C        14.2136308064        5.2313437919        2.7956450485
  C        15.3501234542        4.8721904144        2.1400052581
  C        15.3873396607        4.9345282297        0.6717011303
  C        14.2581802341        5.4149378213       -0.0074319649
  H        14.2178987570        5.4682636707       -1.0954492470
  H        16.2839526344        4.6504414876        0.1493453801
  H        16.1077374531        4.3118259352        2.6378375791
  H        14.0997786937        5.1503055792        3.8704467664
  C        12.0087801792        6.4135539551       -1.4414801193
  C        11.3191437201        5.2260599729       -2.0126537778
  C        11.4901593725        4.8868218374       -3.3425021247
  C        12.3931432629        5.6127593529       -4.1636740792
  C        13.0647049043        6.7446311250       -3.6588383167
  C        12.8587806849        7.1053482500       -2.3179009595
  H        13.4908766337        7.8109925287       -1.8204321727
  H        13.8061100311        7.3180591411       -4.2786043538
  H        12.6445436724        5.3487563475       -5.1758969854
  H        11.0090834362        3.8817174038       -3.6589303627
  H        10.6984428047        4.7681923650       -1.2911116443
  C        18.4181910318        7.1660508915        1.8220091252
  C        17.3631934844        7.8652013943        2.5194106446
  C        16.3140429752        8.4892824341        1.8411893545
  C        15.2387005078        9.2301827861        2.4951771889
  C        14.2173184383        9.8643468872        1.7936411015
  C        17.6050713082        8.2665958204        3.9300307306
  C        18.3937382115        9.4138925281        4.2564442112
  C        18.4278065240        9.9763494232        5.5547805052
  C        17.6622157911        9.3527939146        6.5882779698
  C        16.8593586939        8.2371778214        6.2760596818
  C        16.8079132789        7.6962271541        4.9868605131
  H        15.2029778255        9.1030894495        3.5789187801
  H        13.4310702319       10.1451033511        2.4302881194
  H        19.0214183363        9.7762370483        3.4596908211
  H        18.9440133583       10.8740978466        5.7920615703
  H        17.6812327924        9.6445704560        7.6523746595
  H        16.2552282917        7.7335152963        7.0003414335
  H        16.1220796364        6.9273896581        4.6790986351
  C        18.3485494860        7.1355616019        0.3533085894
  C        19.3881200331        6.4165380440       -0.3928086244
  C        20.5548035455        6.0338524748        0.2505888218
  C        20.7037264443        6.1438437306        1.7376304160
  C        19.5472989202        6.5432975957        2.4441544779
  C        16.2976656141        8.5104177978        0.3541341957
  C        17.2980591672        7.7293050824       -0.3146294676
  C        17.4108135024        8.0573721978       -1.8077503653
  C        18.2950529092        9.1101791088       -2.1123709926
  C        18.4091475339        9.6061958283       -3.4390019618
  C        17.5968102981        9.0930028835       -4.4879850450
  C        16.7200323760        8.0321366263       -4.1950884363
  C        16.6785483786        7.4568843192       -2.8776703744
  H        15.9811897233        6.6170884471       -2.6869363271
  H        16.2172637428        7.5423992935       -5.0012800512
  H        17.7304669831        9.4445829657       -5.4887225672
  H        19.1504127218       10.3005077695       -3.7496485678
  H        18.9112156438        9.5336860408       -1.3355861109
  C        15.2475815039        9.3036443481       -0.2873424543
  C        14.2182873663        9.9515740674        0.4039296234
  H        13.5609305168       10.6100168242       -0.1595005595
  H        15.2734052627        9.3417084440       -1.3327783922
  C        19.4843769790        6.0768290059        3.9162551380
  C        18.6871642389        4.9776234540        4.2948748085
  C        18.7856658355        4.4939614858        5.6031647513
  C        19.4770640152        5.2190301410        6.5870116596
  C        20.1870719784        6.3574507585        6.2307034490
  C        20.2522792943        6.7335287958        4.8689854688
  H        20.8289958033        7.5685548782        4.4250294320
  H        20.8322776822        6.8883197436        6.9324839677
  H        19.4987600329        4.9195132694        7.6003388219
  H        18.1491819568        3.6531518117        5.8667334069
  H        18.1000237543        4.5162831556        3.5025152018
  C        21.9346345782        5.7340080439        2.4000585795
  C        22.8883813670        4.9987273353        1.6941969995
  C        22.6944169379        4.7673303333        0.3132493352
  C        21.5978666196        5.2436122061       -0.3770768248
  H        21.4974401734        5.0710874012       -1.4317829705
  H        23.1624707853        3.9803080262       -0.1956523177
  H        23.7300403545        4.4314392999        2.0979947686
  H        21.9253799329        6.0184569842        3.4499230779
  C        19.2949303139        5.9260726171       -1.7891867710
  C        18.4915042320        4.8288893909       -2.1187411415
  C        18.4533770215        4.3079646710       -3.4337842031
  C        19.2304610694        4.9400433829       -4.4534896015
  C        20.0161071007        6.0586353498       -4.1713426702
  C        19.9917851064        6.5887210188       -2.8137821530
  H        20.5908294202        7.4717675040       -2.6410734027
  H        20.5957932087        6.5875029298       -4.9241145994
  H        19.0700372543        4.7324857191       -5.4918957443
  H        17.7555170748        3.5056965143       -3.7060290293
  H        17.9030067000        4.2923529865       -1.3574491457
