140

  C         9.5693497116        7.8515314275        1.5360952626
  C         8.4780217704        8.5628072043        2.1931748138
  C         7.3669703256        8.9805307192        1.5077180661
  C         6.3614594032        9.7801273645        2.1261292989
  C         5.2929314130       10.2091241682        1.3588811511
  C         8.5627915337        8.9003132569        3.6472563789
  C         9.4035632817        9.9194381677        4.1823115795
  C         9.2720239100       10.2481174519        5.5416653020
  C         8.4036300700        9.6056300599        6.4008081538
  C         7.5792282657        8.5751983976        5.8832056953
  C         7.6291333028        8.2671975266        4.5177340283
  H         6.5000019049       10.0712534541        3.1665043476
  H         4.5604494668       10.8369182035        1.8727817053
  H        10.0509299521       10.4421896518        3.5092637524
  H         9.9489507107       11.0290205210        5.9037326512
  H         8.3796208452        9.6914472401        7.4422731600
  H         6.8187760210        8.1382575805        6.4704185039
  H         6.9558608392        7.5599878251        4.0784162551
  C         9.5507061058        7.7691570867        0.0794092497
  C        10.6226777068        7.0647783495       -0.6458218526
  C        11.6265562320        6.4557575695        0.0990270955
  C        11.6565705659        6.5786175149        1.6022729228
  C        10.5816490343        7.1975930741        2.2864425071
  C         7.2956063898        8.8610294209        0.0030056466
  C         8.4210057264        8.3115430941       -0.6652635149
  C         8.6680994675        8.6828902574       -2.1098633354
  C         9.6497204411        9.5724011756       -2.4584664310
  C         9.8318020244       10.0410825300       -3.7722059801
  C         8.9464694086        9.5923113402       -4.7861493449
  C         7.9195085424        8.7196053484       -4.4595333339
  C         7.9007496247        8.1215566695       -3.1986062875
  H         7.1614809106        7.3580036085       -3.0824994443
  H         7.2526858149        8.3145829470       -5.2644405653
  H         9.2723487734        9.7839871364       -5.7871041772
  H        10.6880554276       10.6695468344       -4.0596014996
  H        10.3221729165        9.9667775645       -1.6953168281
  C         6.2218090049        9.4829441082       -0.6880503639
  C         5.1717756816        9.9951903709        0.0258439162
  H         4.4130677754       10.5993022631       -0.5529405600
  H         6.3533292830        9.4976366267       -1.7213003504
  C        10.4201174888        6.8627949625        3.6910550900
  C         9.5115712859        5.8464446737        4.0325560298
  C         9.3629164236        5.4481994199        5.3428481752
  C        10.0777273443        5.9463638829        6.4171364336
  C        11.0781520669        6.8649185274        6.0571052394
  C        11.2050960301        7.3298761992        4.7245774226
  H        11.9624814292        8.0314283262        4.3876544673
  H        11.7636559797        7.2003193955        6.8401971304
  H        10.0145806836        5.5205794634        7.4375102569
  H         8.7430229678        4.5867289923        5.6006955384
  H         8.7669121048        5.4334945120        3.3428635612
  C        12.7024222371        6.0051308735        2.2918777963
  C        13.6319356206        5.2429762914        1.6092606846
  C        13.6082886112        5.0240120498        0.2248883126
  C        12.6611420428        5.6285168329       -0.5341085179
  H        12.7040463222        5.5012473776       -1.5704670796
  H        14.4690878557        4.5415918531       -0.2612450273
  H        14.4176318537        4.8170678407        2.2762286371
  H        12.7772120539        6.2946827345        3.2847045824
  C        10.6270571391        6.6958270687       -2.1441700268
  C         9.7282324889        5.6997377712       -2.5219500515
  C         9.6185271723        5.1826944837       -3.8264816896
  C        10.5289776176        5.7208215506       -4.7797866771
  C        11.5645468435        6.5298935569       -4.3477709797
  C        11.6083986390        7.0090003969       -3.0290174378
  H        12.4105166221        7.7890224068       -2.7729843861
  H        12.3216941309        6.7108719070       -5.0635970057
  H        10.4964583332        5.3695376748       -5.8346490252
  H         8.7859650835        4.5011160427       -4.0976285441
  H         8.8956017865        5.4442152320       -1.8543037833
  C        16.9122672025        7.6865825537        1.2168527762
  C        15.8025442885        8.2566235286        1.8489025373
  C        14.7005502127        8.8171115039        1.1946252310
  C        13.5602818085        9.4080089603        1.8406633346
  C        12.6616478408       10.1457044566        1.1304525475
  C        15.8236211963        8.6221454772        3.3546212619
  C        16.3554584842        9.8522576734        3.7111222501
  C        16.2517811425       10.3670795245        5.0147683996
  C        15.6578823388        9.6193504050        6.0357107115
  C        15.1330393572        8.3657545883        5.6799807430
  C        15.2736679800        7.8441722993        4.3993522133
  H        13.4470321385        9.3787478875        2.9471863228
  H        12.0069514453       10.7787890547        1.7250903337
  H        16.9866253259       10.3918106326        3.0596011527
  H        16.8451450453       11.2371406127        5.2469931232
  H        15.6033045197       10.0636475528        7.0299273792
  H        14.7287167043        7.7549094006        6.5483325277
  H        15.0153640674        6.8154503641        4.2513062518
  C        16.9034726733        7.5485591979       -0.3099252691
  C        17.9285699367        6.8253582070       -0.9681472555
  C        19.0587194257        6.3780068664       -0.2521771859
  C        19.0632735128        6.4312191535        1.1699881818
  C        17.9547725708        7.0211000408        1.8716844190
  C        14.7984577295        8.8300476829       -0.2933963791
  C        15.8840652319        8.2818389243       -1.0287325318
  C        16.0698932154        8.6815246797       -2.4487510995
  C        16.9732635472        9.7090051462       -2.7000424496
  C        17.1024484646       10.3168331010       -3.9315612316
  C        16.2420824954        9.9148091456       -4.9741641078
  C        15.2450900109        8.9286985130       -4.7080038908
  C        15.1498120597        8.3089561353       -3.4549303488
  H        14.4662646543        7.4570585937       -3.3586573711
  H        14.5421643902        8.7329934759       -5.5454385905
  H        16.3539356428       10.3522306658       -5.9334435999
  H        17.9202879590       10.9859145624       -4.1354883702
  H        17.5276940142       10.0464851414       -1.8243139239
  C        13.7461478368        9.4992883694       -0.9689436069
  C        12.7437894294       10.1766609862       -0.3150326539
  H        11.9274588741       10.6511414463       -0.7911969457
  H        13.8210651655        9.5256938112       -2.0345686492
  C        17.8689287749        6.6808577442        3.3207432499
  C        17.2141724853        5.4603615497        3.5612149009
  C        17.1336173128        4.9337031177        4.8603059268
  C        17.7740850644        5.6664402727        5.8655099928
  C        18.4427239856        6.8541490535        5.5820325554
  C        18.4587443059        7.4115406114        4.3453628357
  H        18.7955057523        8.4674922754        4.2106135397
  H        18.8691145692        7.3127833927        6.4563823919
  H        17.7112977072        5.3325035864        6.9269228558
  H        16.5401145955        4.0227651158        5.0438456365
  H        16.9469226139        4.9077686019        2.6672321879
  C        20.2497119711        5.9694991648        1.8879276241
  C        21.3094410853        5.4916718233        1.1725726347
  C        21.3313069917        5.4971496573       -0.2255215710
  C        20.1779783380        5.8190140699       -0.9244205835
  H        20.1501727866        5.7795562877       -2.0101812765
  H        22.0454695322        5.0550309020       -0.9044223589
  H        22.1978195371        5.1201247792        1.7003682349
  H        20.2935350216        6.0064470513        2.9847281863
  C        17.8681084497        6.3960455975       -2.4201080431
  C        16.9940482189        5.3815592943       -2.8632959246
  C        16.7659030552        5.0438447644       -4.2025085018
  C        17.5405390329        5.5901787749       -5.1715893375
  C        18.4982769741        6.5466148967       -4.7826493812
  C        18.6590091463        6.9663491250       -3.4258148012
  H        19.2959021581        7.7768297268       -3.1654874613
  H        19.1150731186        6.9946712360       -5.4840240646
  H        17.4123297829        5.4583476122       -6.2480671497
  H        16.0455086856        4.2935039370       -4.4444735510
  H        16.4009844408        4.9221797931       -2.0707815660
