140

  C         5.0073485178       -1.3976280480       13.7327863215
  C         6.0747732573       -0.6517386193       14.3564483213
  C         7.1511346170       -0.1486220469       13.5841120712
  C         8.2026264054        0.5355038000       14.2022265174
  C         9.1814693272        1.2093050534       13.4937066624
  C         6.0792594536       -0.1136773719       15.7928805104
  C         5.1932236742        0.8781688253       16.1388691447
  C         5.1877803179        1.4793799711       17.3742984121
  C         6.1043269695        1.0683933028       18.3789105092
  C         6.8980262716       -0.0487126720       18.0299736926
  C         6.9249917938       -0.6405002585       16.7946395282
  H         8.2118040169        0.5952788571       15.2541197845
  H         9.9985013953        1.7116348081       13.9917713932
  H         4.6034361810        1.2544496194       15.3539615311
  H         4.5092560603        2.2942747584       17.4986270116
  H         6.2035655502        1.5662346575       19.3686027709
  H         7.6190630625       -0.4354130185       18.7721425403
  H         7.6325758536       -1.5193304672       16.6008432150
  C         4.9733020180       -1.4226778463       12.2376194591
  C         3.9004398302       -2.1817345792       11.6093012897
  C         2.8420569755       -2.6566063413       12.3741708297
  C         2.8413971680       -2.5511031730       13.8170157461
  C         3.9387819271       -1.9890680583       14.4204359825
  C         7.0993214839       -0.2115193157       12.1372692843
  C         5.9760766865       -0.7703948613       11.4923148587
  C         6.0148719366       -0.4551916276       10.0018313950
  C         5.2547996134        0.5714065837        9.5089642507
  C         5.3700158230        0.9997488763        8.1802975952
  C         6.3496285455        0.4531989421        7.3695733375
  C         7.0967165385       -0.6403773370        7.8219639109
  C         6.9898073496       -1.0445715784        9.1228743271
  H         7.5378098976       -1.8857701155        9.5378113422
  H         7.7331814706       -1.1502151104        7.1098261835
  H         6.5069387656        0.7409642124        6.3458296828
  H         4.8009096349        1.7854246129        7.7764632687
  H         4.5522682951        1.0054406479       10.2044421841
  C         8.2402174420        0.3537293014       11.4456854032
  C         9.2350712586        1.1085076521       12.1269622055
  H        10.0749910815        1.5615862320       11.5871652691
  H         8.3228383877        0.2985165210       10.3147217809
  C         4.0150917939       -2.3625958731       15.8802806883
  C         4.7529729011       -3.5245154776       16.2191634185
  C         4.7798121258       -3.8463024422       17.6159602158
  C         4.0025273386       -3.1738620273       18.5679110325
  C         3.3082369017       -2.0145306657       18.1484710316
  C         3.2491573747       -1.5952405700       16.8668470300
  H         2.6659107775       -0.7120577247       16.5023688933
  H         2.6569683702       -1.4810220808       18.8905102969
  H         4.0696923355       -3.4260281180       19.5997009223
  H         5.3837958188       -4.6773664678       17.9777389950
  H         5.3592494370       -4.0849925302       15.5425734330
  C         1.8395720630       -3.2945283545       14.5517921703
  C         0.8906259362       -4.0211788388       13.8830468713
  C         0.8149185186       -3.9581707677       12.4299634414
  C         1.7428362907       -3.2962441575       11.6760677598
  H         1.6307098051       -3.2383477430       10.5944724826
  H        -0.0245131003       -4.4389345726       11.8984461007
  H         0.2095487622       -4.6330301893       14.3531294670
  H         1.8909617620       -3.2580634827       15.6777169690
  C         4.0007788825       -2.5607003964       10.1972483675
  C         4.9468121639       -3.5758460502       10.0322749009
  C         5.1229070144       -4.1490763716        8.7898497329
  C         4.3890372983       -3.7662210541        7.7220897657
  C         3.4702037306       -2.7094160051        7.8356618786
  C         3.2961740562       -2.1206928130        9.1123990607
  H         2.5290818726       -1.3596707217        9.2178161568
  H         2.9653333426       -2.3528490135        6.9127452482
  H         4.6065371213       -4.3778549767        6.8411040035
  H         5.6957319099       -5.0266343672        8.6883930655
  H         5.4048404842       -3.9684299228       10.9481989047
  C        12.2096226096       -1.2964467242       13.6483469829
  C        13.2994830433       -0.6561779734       14.3428131470
  C        14.3610012521       -0.1076337450       13.6367631941
  C        15.4446768086        0.5973509439       14.3430845751
  C        16.4926587028        1.1063897982       13.6555155546
  C        13.1181612152       -0.1986371076       15.8109207592
  C        12.1504821779        0.8038560379       16.0127501056
  C        11.8847569033        1.2936549904       17.3263112222
  C        12.7216703870        0.8945135218       18.4335964323
  C        13.6834716253       -0.1102174821       18.1699456754
  C        13.8776548738       -0.6137486633       16.8806034590
  H        15.3972841884        0.7436954094       15.3922293826
  H        17.3189128022        1.5640903886       14.2415108723
  H        11.5446893038        1.0663784819       15.1359843100
  H        10.9797929336        1.8409216069       17.5536846509
  H        12.5584719825        1.2081022129       19.4462914490
  H        14.3514798575       -0.4574709223       18.9601752083
  H        14.7237452873       -1.3722742210       16.7841574060
  C        12.2571450370       -1.3784444618       12.1517113706
  C        11.2718562107       -2.1456416384       11.4719071162
  C        10.1528831197       -2.7088275016       12.1951314238
  C        10.1280243833       -2.7319264522       13.6008999930
  C        11.1894145268       -2.0383201494       14.2982737131
  C        14.4779505854       -0.1743983077       12.1814328796
  C        13.3327498337       -0.7032435762       11.4798712294
  C        13.1634757156       -0.3676133698       10.0668147511
  C        12.1480250486        0.5689675414        9.7035891425
  C        12.1089682543        1.1415678792        8.4586898279
  C        13.0185472991        0.8264223238        7.4717339842
  C        14.0661356955       -0.0846100811        7.7618446780
  C        14.0745322260       -0.6818990295        9.0361818666
  H        14.8473025812       -1.4240945095        9.2468358532
  H        14.8346008316       -0.3626922888        7.0028193782
  H        12.9942937852        1.2522478262        6.3953088429
  H        11.3729920257        1.9236969475        8.2751093625
  H        11.3456973212        0.6496897770       10.4501923827
  C        15.6302063453        0.4036823756       11.5136628395
  C        16.5622539997        1.1123873757       12.2195263364
  H        17.4095400555        1.5339648765       11.6423785955
  H        15.6221367406        0.5378103556       10.4501257076
  C        11.2016598468       -2.3505251789       15.7517110926
  C        12.0523591667       -3.3474673939       16.1586678140
  C        12.0509303023       -3.7804211152       17.4846201768
  C        11.1929076918       -3.2248363475       18.3983935301
  C        10.3965812908       -2.1123183523       18.0612555650
  C        10.3326814321       -1.7293433995       16.7208781542
  H         9.7040813580       -0.8615450080       16.5121124886
  H         9.7491635448       -1.6203635377       18.7504740727
  H        11.1211559534       -3.6244731834       19.3399005021
  H        12.7575332198       -4.6037505113       17.7893274753
  H        12.6903311657       -3.7957790513       15.4225687839
  C         9.1344066057       -3.3769699761       14.3654280215
  C         8.1044969836       -4.0808145045       13.6906794468
  C         8.1713686685       -4.1445966215       12.3141597655
  C         9.1047436677       -3.3581238918       11.5190353932
  H         8.8744552096       -3.2681772076       10.4221642813
  H         7.4489609903       -4.7524281012       11.7618357778
  H         7.3399015553       -4.5924462434       14.3025759457
  H         9.1798873086       -3.2878298772       15.4515478620
  C        11.3353223934       -2.5943710120        9.9983302527
  C        12.2279022705       -3.6146265195        9.6627603699
  C        12.3658392589       -4.1281183194        8.4041958859
  C        11.4033360410       -3.7281660058        7.3778020154
  C        10.3989767801       -2.7959766243        7.7120805094
  C        10.4199379241       -2.2012600270        9.0156636754
  H         9.7738296923       -1.3963672372        9.0732800322
  H         9.5511372593       -2.6022476025        7.0989281163
  H        11.4384096922       -4.0455155131        6.3621008792
  H        13.2262949158       -4.8058442084        8.1828849145
  H        12.7913682571       -4.0014566914       10.4866043425
