140

  C         4.4297042100       -0.8426494608       13.5293973796
  C         5.4833305530       -0.2540505122       14.2890558856
  C         6.6684963139        0.1645222709       13.6413064825
  C         7.8179628494        0.6590555906       14.4379179093
  C         8.8690595794        1.2739637083       13.7929158124
  C         5.4653931522       -0.0566827059       15.6568301515
  C         4.8404531359        1.1114620813       16.1960226096
  C         4.9804663982        1.5103894769       17.5339435647
  C         5.7023159017        0.6895855697       18.4647541246
  C         6.3574201891       -0.4309571817       17.9232939730
  C         6.2755408681       -0.7724948423       16.5732762660
  H         7.9427130315        0.5594797849       15.5214516413
  H         9.7917346398        1.5817814396       14.3618939884
  H         4.0877490327        1.5946093024       15.5860985247
  H         4.6032458247        2.4772619483       17.9397042983
  H         5.7427165664        0.9897896254       19.5597974761
  H         7.0268102194       -0.9165565012       18.6803726477
  H         6.7983887744       -1.6634133901       16.1948238404
  C         4.4773369635       -0.8230968160       12.0278326044
  C         3.4658824336       -1.5378867283       11.3371373354
  C         2.3888581442       -2.1861121876       12.0077576724
  C         2.3265697988       -2.1610795184       13.4987863198
  C         3.4115640334       -1.5614083430       14.1773412140
  C         6.6594353487        0.3219455263       12.1882293614
  C         5.5465001953       -0.1250099949       11.4490576317
  C         5.3605771708        0.2295114857       10.0410717254
  C         4.5271701180        1.2993949025        9.8377961277
  C         4.4496496090        1.8625941520        8.5488719182
  C         5.1955267318        1.4190978327        7.4853580937
  C         6.0925810850        0.3272822962        7.6867688031
  C         6.2179252090       -0.1829437562        8.9415223344
  H         7.0201608618       -0.8719854309        9.1325305955
  H         6.7168212878       -0.1122966393        6.8827228524
  H         5.0569133323        1.9281809229        6.5406341381
  H         3.8837162600        2.7803275763        8.3985497288
  H         3.9639804745        1.7475822935       10.6517408786
  C         7.8116068061        1.0426820090       11.6305294203
  C         8.8120646017        1.5983768926       12.3879439633
  H         9.5791296938        2.2245970409       11.8824952090
  H         7.8251439730        1.2704971298       10.5588374604
  C         3.5167812432       -1.9760437563       15.6572987397
  C         4.2631846139       -3.0640709221       16.0021210590
  C         4.1718206447       -3.7839232210       17.1970553477
  C         3.6142589704       -3.1415537898       18.3312551421
  C         3.0411318815       -1.8671147875       18.0954028635
  C         2.9701437526       -1.3336657637       16.8061962917
  H         2.2977008071       -0.4308954625       16.6569718804
  H         2.4683034866       -1.3837122146       18.8772049593
  H         3.5883940491       -3.6710800876       19.2774538580
  H         4.7228310579       -4.6722771896       17.2198103493
  H         4.7485992843       -3.5885758568       15.1821466626
  C         1.2196122559       -2.9031836632       14.1457455099
  C         0.2219236180       -3.4915482508       13.4170365141
  C         0.2298038438       -3.3580023285       11.9669147491
  C         1.3293638738       -2.8713133115       11.3248694378
  H         1.2528049966       -2.8743136947       10.2159295033
  H        -0.6970554891       -3.7401027203       11.4855968069
  H        -0.5812522181       -3.9810435751       13.9200685197
  H         1.1665298123       -2.9234211476       15.2426934220
  C         3.5252562497       -1.8574177870        9.8673096487
  C         4.2786816404       -3.0028950361        9.4722966421
  C         4.1783953734       -3.4361191590        8.1423945279
  C         3.2906996146       -2.7949126144        7.2323937762
  C         2.4787716749       -1.7479462481        7.6518735783
  C         2.6226564383       -1.2521775926        8.9293040536
  H         1.9716417520       -0.4243416161        9.2695153169
  H         1.7361367304       -1.2621648499        6.9473208263
  H         3.3282252280       -3.1915596013        6.2328481898
  H         4.9176826524       -4.1464007191        7.6883768293
  H         5.0139763808       -3.4411201295       10.1773530508
  C        11.4329777648       -1.0747478748       13.8055958651
  C        12.4332748531       -0.4063295957       14.5802163528
  C        13.5778015376        0.0627246578       13.9512355887
  C        14.7035402037        0.6051123064       14.6047693287
  C        15.6128090599        1.4036324944       13.9994738777
  C        12.4817226925       -0.1345825463       16.0765490279
  C        11.8532933921        1.0830203371       16.5591475821
  C        12.0098539581        1.5492829054       17.8188776761
  C        12.7568114878        0.8608527628       18.7734986520
  C        13.4152596190       -0.3391505775       18.3518588103
  C        13.2744022363       -0.7945965746       17.0506749741
  H        14.7306745173        0.5890032680       15.7291014139
  H        16.3403324087        1.8442597472       14.6030960253
  H        11.3501277148        1.5832047590       15.7480504484
  H        11.5052208003        2.4388356051       18.0983739927
  H        12.6993222364        1.2539684602       19.8177314855
  H        14.1434393167       -0.8553154473       19.0316227195
  H        13.8158121847       -1.6723420486       16.7326562899
  C        11.5420743147       -1.1284014473       12.3182945795
  C        10.5920493730       -1.9211552068       11.6031282786
  C         9.4578574120       -2.4778380453       12.2441466882
  C         9.4173858494       -2.5141663617       13.6931677421
  C        10.5081696719       -1.9334717721       14.4843687168
  C        13.6304190898        0.1731908707       12.4979116623
  C        12.6002222274       -0.4078584347       11.7228208998
  C        12.6827934289       -0.0832190412       10.2900585841
  C        11.9371776279        1.0772899593        9.8918361818
  C        12.0165569876        1.5370383521        8.5977421039
  C        12.7425856368        0.8276573840        7.6597571962
  C        13.5480993823       -0.2337465413        8.0584727460
  C        13.5162825777       -0.7344377035        9.3689589551
  H        14.1773752602       -1.5364763327        9.6985201986
  H        14.1342377068       -0.8044198954        7.2906837820
  H        12.7971211013        1.1881772130        6.6663873734
  H        11.4760993060        2.4482124492        8.2849074500
  H        11.3359385279        1.5396328933       10.6305641002
  C        14.6704630936        0.9020785891       11.8731623943
  C        15.6089044846        1.6010587084       12.6075765489
  H        16.3361566784        2.2647602873       12.1198573894
  H        14.7791853568        0.8278907432       10.7769655712
  C        10.5534605178       -2.3196246336       15.9081658406
  C        11.3810161905       -3.4097350673       16.2888588094
  C        11.4308820687       -3.8321615582       17.6225583148
  C        10.7287334881       -3.1506817860       18.6170570704
  C         9.8202592481       -2.1508754985       18.2401943435
  C         9.7736704890       -1.7417884222       16.9152210994
  H         9.0833873186       -0.9261714065       16.6794731727
  H         9.1948791572       -1.7253038970       18.9581855379
  H        10.7679971206       -3.4857585331       19.6154165904
  H        12.0457666320       -4.6513637339       18.0286970937
  H        11.8701433667       -3.9214535623       15.5047095624
  C         8.4134107755       -3.2834417769       14.3358703305
  C         7.5251180842       -3.9775669584       13.6018499659
  C         7.5140091943       -4.0185630515       12.1821860607
  C         8.4531046388       -3.2042695676       11.5378902079
  H         8.5107593401       -3.1974377350       10.4152945938
  H         6.7615963493       -4.6021942469       11.6271900089
  H         6.8616065639       -4.6163082123       14.1618571790
  H         8.1981977021       -3.2465495954       15.4042930823
  C        10.6839380054       -2.1639197121       10.1043943872
  C        11.2830104606       -3.3678691275        9.6405684492
  C        11.1949145797       -3.8002680208        8.3438079594
  C        10.5406481596       -2.9512463728        7.4103120831
  C         9.9812402898       -1.7216647488        7.8455637645
  C        10.0564180750       -1.3299663865        9.2060377672
  H         9.5432832422       -0.4124839347        9.3071225325
  H         9.4646854060       -1.0226613426        7.1635527556
  H        10.4925653782       -3.2534805430        6.3576396097
  H        11.6007396060       -4.7292899018        7.9952135571
  H        11.8124668159       -4.0115349127       10.4031937300
