140

  C        11.2040661424        6.4556829651        0.4496730036
  C        10.2806043649        7.3074868603        1.1339897450
  C         9.1577997166        7.9034361783        0.4573907419
  C         8.2609323625        8.7295127835        1.1732758324
  C         7.1072785045        9.2186096381        0.5920587401
  C        10.4043402727        7.6433421136        2.5836779362
  C        11.2546553286        8.6830112735        2.9193670303
  C        11.4050758102        9.0602892742        4.2334813862
  C        10.6818849394        8.4609704466        5.2619241147
  C         9.8573639440        7.3780169861        4.9681205133
  C         9.6386101385        7.0560057838        3.5447460047
  H         8.5053684065        8.9922720302        2.2208530185
  H         6.4807327473        9.8981543576        1.1655002255
  H        11.8599478652        9.1843885747        2.0751286979
  H        12.0817945342        9.9099264434        4.5166663946
  H        10.8428446199        8.9033889640        6.2525361422
  H         9.3162522254        6.8321529977        5.6861521705
  H         8.9982977143        6.2912502223        3.3899834505
  C        11.1885266425        6.4215436216       -0.9787305652
  C        12.2242906561        5.7160304189       -1.6837693671
  C        13.2817473374        5.1603792341       -0.9863889624
  C        13.2224254169        5.0292669618        0.4176778647
  C        12.1734099277        5.6877255661        1.1482648403
  C         9.0591007702        7.7298494752       -0.9179798087
  C        10.0459212385        7.0523575205       -1.6461868919
  C         9.9553674910        7.2435718914       -3.1685180274
  C        10.6145845582        8.3421904784       -3.8328090540
  C        10.2774041913        8.5935932087       -5.1566936455
  C         9.6184520390        7.6597590292       -6.0120157318
  C         9.0125654719        6.5592450815       -5.3873644983
  C         9.1354545636        6.4141754299       -3.9442366939
  H         8.6164469510        5.5121282870       -3.5487850669
  H         8.4196017371        5.8716445029       -6.0708608618
  H         9.3132171990        7.9015967273       -7.0192758037
  H        10.6218062154        9.5930926612       -5.5475954214
  H        11.3304509516        8.9589649235       -3.3106507960
  C         7.8689793933        8.2674318484       -1.5115638250
  C         6.9230924261        8.9152767695       -0.7851532135
  H         6.0699242768        9.3759443009       -1.3638532940
  H         7.7437521077        8.2585471028       -2.5951538920
  C        12.1922239601        5.4122300455        2.6380602672
  C        11.4139805892        4.4033967669        3.1856059272
  C        11.4753498849        4.1078169632        4.5482854864
  C        12.3397061554        4.8189752965        5.3766805192
  C        13.0806060285        5.8927853728        4.7740020287
  C        13.0521166699        6.1655259807        3.4803636838
  H        13.5484069747        7.0019945454        3.0638700408
  H        13.5985389866        6.5210782530        5.4614815364
  H        12.4320838564        4.5878022266        6.4643891289
  H        10.8773886500        3.3134791009        4.9261484877
  H        10.7000895077        3.8622512830        2.5305395439
  C        14.1054737445        4.1232308772        1.0697779314
  C        15.0647249310        3.4341069148        0.4401907407
  C        15.2550274035        3.6684675598       -0.9734333756
  C        14.3445006374        4.5106449113       -1.6255489584
  H        14.4588792807        4.5345489327       -2.6685243154
  H        15.8385581300        3.0147112410       -1.6238208213
  H        15.7391210440        2.7355062891        1.0041515421
  H        13.8962352511        4.0414558750        2.1570581094
  C        12.1440150045        5.4094669148       -3.1545160053
  C        11.3632383793        4.3323943794       -3.6073353467
  C        11.5235738334        3.9224390959       -4.9760508636
  C        12.2581535079        4.6026741025       -5.9271483565
  C        13.0168586248        5.6801403486       -5.4461395857
  C        12.9129240537        6.1106290824       -4.0448118510
  H        13.4706669103        7.0575311312       -3.8547948510
  H        13.5315183630        6.2816604052       -6.2110549926
  H        12.4044417778        4.2670758008       -6.9442824064
  H        10.8508844803        3.1445908959       -5.4359372678
  H        10.7797412616        3.9099247028       -2.7935264414
  C        18.5254366729        6.4724140500        0.2151009517
  C        17.4179426562        7.1800990191        0.8940845081
  C        16.3444274080        7.7255612848        0.1528591497
  C        15.2824636699        8.3444482391        0.8654566406
  C        14.1635936252        8.7639565780        0.2057822325
  C        17.5008539214        7.3918798064        2.3932399701
  C        18.3251282710        8.4093430984        2.9187596941
  C        18.4237948631        8.6446768178        4.2851922617
  C        17.6465914506        7.8039958911        5.1405156665
  C        16.8568567561        6.7640323915        4.6016245633
  C        16.7585367416        6.5536893973        3.2537001045
  H        15.4049322129        8.3408314012        1.9295264032
  H        13.2691047125        9.1522719316        0.7200470150
  H        18.8871834790        8.9969696536        2.1790784696
  H        19.0206648081        9.4564674708        4.6962435362
  H        17.7462449444        7.8996482498        6.2285631316
  H        16.1254738335        6.2388458896        5.2354798861
  H        16.1600838434        5.7325563978        2.8456027114
  C        18.5300380296        6.4830400509       -1.2776841707
  C        19.4133724896        5.7529058672       -2.0661520570
  C        20.5700708931        5.2042609006       -1.4569762289
  C        20.6989245082        5.2381421053        0.0068616366
  C        19.6208926335        5.7875151086        0.8178490381
  C        16.3513785947        7.6896479159       -1.2473669362
  C        17.4848356715        7.1591371262       -1.9369277087
  C        17.6161361576        7.4926017958       -3.3845586397
  C        18.4718201729        8.5366023458       -3.8098652607
  C        18.3345631536        9.0951153923       -5.1049545434
  C        17.4296136665        8.4694900813       -5.9902017750
  C        16.7219426705        7.3057773120       -5.6620857442
  C        16.7441161380        6.8588518274       -4.2866786738
  H        16.0613656583        6.0444890538       -4.0121276338
  H        16.1029528136        6.8073464041       -6.3993479061
  H        17.6514583489        8.7532284896       -6.9684496546
  H        18.9812592934        9.8922491231       -5.4562855833
  H        19.1878052501        8.8977989635       -3.1155774235
  C        15.3025686859        8.3356356542       -1.9398393333
  C        14.1830972566        8.7978135756       -1.2277165870
  H        13.3215926801        9.3324048415       -1.7305881556
  H        15.5036980107        8.4641644803       -2.9837561172
  C        19.6397157419        5.3637211148        2.2169350428
  C        18.8473808855        4.1566960641        2.5247792550
  C        18.8651699833        3.5806149259        3.7796282748
  C        19.5357763284        4.2024394712        4.8321541925
  C        20.3403134095        5.3608391861        4.6157348053
  C        20.4830168032        5.8398680519        3.2680626593
  H        21.2256081762        6.5489428010        3.0002528613
  H        21.0184096447        5.7970575645        5.3703618517
  H        19.4874047232        3.7106959757        5.8557262913
  H        18.3717691308        2.6218049146        3.9139749605
  H        18.3295007409        3.7157732810        1.7269683646
  C        21.8463748751        4.6462217160        0.6168374169
  C        22.8424170994        4.0877951065       -0.2043622330
  C        22.7254859134        4.1012423015       -1.6223073407
  C        21.6348284086        4.6433456276       -2.2207262383
  H        21.5286273859        4.5673773312       -3.3378519255
  H        23.5204458796        3.5569326574       -2.1005868138
  H        23.6819809959        3.5687412300        0.2830886090
  H        21.9027639944        4.6360337960        1.7297767039
  C        19.1310219545        5.2721766071       -3.4726414019
  C        18.2050392543        4.2445854878       -3.6090609659
  C        17.9148431348        3.7175973093       -4.8663136885
  C        18.6830864606        4.0857801838       -5.9335717183
  C        19.6378906862        5.0739432346       -5.8710197533
  C        19.8249176843        5.7553390082       -4.6229332464
  H        20.4643845672        6.6010981024       -4.6330774069
  H        20.2148615391        5.3194401265       -6.8249857908
  H        18.4944707825        3.6903345588       -6.9278723985
  H        17.0915870589        2.9872426225       -4.9659873421
  H        17.5827785057        3.8543668416       -2.7577789162
