140

  C        11.9854981555        7.2837477805        2.3026495108
  C        10.9857900258        8.0177421018        3.0180490521
  C         9.8079486908        8.4321937401        2.3089929647
  C         8.7846221429        9.2389346305        3.0014291768
  C         7.5546388726        9.5663484346        2.4191142121
  C        10.9908165881        8.2821136172        4.4675021447
  C        11.5966005607        9.4213555293        4.9855796304
  C        11.4192550971        9.7970872374        6.3068211310
  C        10.6748592069        9.0446374918        7.2047262847
  C        10.0207397650        7.8870212115        6.6864923688
  C        10.1679875832        7.5160405054        5.3520766453
  H         8.9937624936        9.4013972010        4.0211775458
  H         6.8437929023       10.2193105182        2.8811007640
  H        12.1957346977       10.0782572402        4.3828958220
  H        11.8910638478       10.7785314128        6.5315072642
  H        10.7758097478        9.2921767710        8.2840840394
  H         9.4509000921        7.2152611101        7.3657828447
  H         9.7879725457        6.5438476370        4.9272881342
  C        11.9084391495        7.1694672534        0.8505809451
  C        12.9498049812        6.4648808774        0.2178836888
  C        14.1137846051        6.0229213679        0.8763518886
  C        14.2043728092        6.1085166993        2.3195085819
  C        13.0881193617        6.6484701084        2.9990791364
  C         9.6452467020        8.2301947361        0.9083677644
  C        10.7811147721        7.7581775990        0.1480469010
  C        10.8004678133        8.1520115908       -1.2845851592
  C        11.6773077718        9.1712332905       -1.5597887238
  C        11.6931081437        9.7913787034       -2.8434551453
  C        10.9144683136        9.3353534659       -3.8775770318
  C        10.1909362897        8.1194154737       -3.6492811730
  C        10.1327287758        7.5291942752       -2.3736790233
  H         9.6572405654        6.5607239642       -2.3125421880
  H         9.6647773179        7.6302170711       -4.5314843103
  H        10.9178295150        9.8609209387       -4.8617445182
  H        12.1553932839       10.7965367764       -2.9397818355
  H        12.3278710761        9.5124097732       -0.8392459602
  C         8.4160477497        8.5986205080        0.2915791605
  C         7.3752517710        9.2103773170        1.0262781159
  H         6.4500877000        9.4899288551        0.5753956285
  H         8.2316855810        8.4622933484       -0.7830123099
  C        13.0000170656        6.3028504092        4.4294489921
  C        12.4032325031        5.0463184622        4.7837583330
  C        12.3467249128        4.5591658987        6.1191510122
  C        12.9390853528        5.3313183715        7.0908395174
  C        13.6134791280        6.5325896394        6.7230741516
  C        13.6382681154        7.0929294748        5.4272562533
  H        14.1086180986        8.0354651025        5.1672020503
  H        13.9763585987        7.1700310533        7.4934480489
  H        12.9934020644        5.1037945896        8.1255513209
  H        11.9128564109        3.5925705102        6.3536716074
  H        11.9554592981        4.4940520763        3.9471826895
  C        15.3101101518        5.4280569492        2.9345798847
  C        16.2467631097        4.7535257095        2.2291430234
  C        16.2040892565        4.7657525748        0.7837410316
  C        15.1140056329        5.3210547838        0.1578253858
  H        15.0765935020        5.3486997570       -0.9299283900
  H        16.8248536408        4.1333111450        0.1776717660
  H        17.0033848380        4.2966992174        2.7824573896
  H        15.3009123292        5.3765050647        4.0049274108
  C        12.8726533802        6.0179730269       -1.1650515638
  C        11.9790180797        5.0207609885       -1.4355666819
  C        11.6677516192        4.6637879356       -2.7461688185
  C        12.2435770313        5.3554809944       -3.8395052211
  C        13.0879088936        6.4443664068       -3.5058535674
  C        13.3804408652        6.7709704320       -2.2345653859
  H        14.0255797268        7.7214970984       -2.0805195317
  H        13.5143860337        7.0446753702       -4.3189296275
  H        11.9377491877        5.1494850355       -4.8792624304
  H        10.8793687244        3.9157588229       -2.9852207511
  H        11.4048073590        4.4346671094       -0.7628310310
  C        18.7951874363        7.2523521660        2.1098719496
  C        17.8097493040        8.0273889777        2.7896748204
  C        16.7556715040        8.5248177678        2.0475719209
  C        15.6769041556        9.2225513961        2.6999658796
  C        14.6974557378        9.8759819196        2.0278832215
  C        17.8763085271        8.3392426285        4.2224985308
  C        18.9293891868        9.2010783481        4.7215289786
  C        18.9264726845        9.6792654391        6.0148838039
  C        17.9503210300        9.4328370212        6.9819683590
  C        16.9903062502        8.4944572828        6.5569264028
  C        16.9302999228        7.9692687859        5.2010807553
  H        15.5828428295        9.2577776214        3.7786389083
  H        13.8403975592       10.4196067978        2.5016872447
  H        19.7578289686        9.3857596731        4.0728317857
  H        19.7743722544       10.3021620226        6.3645976035
  H        17.9927771439        9.7865061063        7.9781584888
  H        16.2520073521        8.2009531405        7.2321470608
  H        16.1676258435        7.1759709898        4.9643000605
  C        18.8175646522        7.1018300704        0.6099139098
  C        19.7946911610        6.2660457792       -0.0384236609
  C        20.9617153769        5.8250182124        0.7022617567
  C        20.9077760663        5.9646367862        2.1234215642
  C        19.8654532364        6.5966422769        2.7875138011
  C        16.7504931393        8.4770835159        0.6327378658
  C        17.8045444080        7.8325692465       -0.0991110556
  C        17.8479218577        8.1960513724       -1.5764754379
  C        18.7541295912        9.1491092260       -2.0813403065
  C        18.5596005253        9.8039742067       -3.3350677371
  C        17.4968330401        9.4371353953       -4.1187552147
  C        16.5205832755        8.5402288396       -3.6396817357
  C        16.7239765400        7.9047190887       -2.4083498195
  H        15.9372547631        7.2514076413       -2.0088867061
  H        15.8170180019        8.1232105654       -4.3407689353
  H        17.4239182219        9.7589037978       -5.1882817235
  H        19.3404464219       10.4871069066       -3.6574079128
  H        19.6153662795        9.3950140353       -1.5716942454
  C        15.7470781853        9.2567195973       -0.0190473289
  C        14.6933733764        9.8911005666        0.5819870385
  H        14.1175212722       10.5002293173       -0.1241824079
  H        15.7597377308        9.2971976533       -1.1020747852
  C        19.8571186915        6.4606104524        4.2692046608
  C        18.9299006787        5.6010118797        4.7910229298
  C        18.8389431922        5.1898552073        6.1549949740
  C        19.7324978977        5.8129149814        7.0452469879
  C        20.6156911156        6.7965435479        6.5496147253
  C        20.6801980103        7.0735270827        5.2295416883
  H        21.4421612064        7.8054285226        4.9797202354
  H        21.2039696163        7.2304686990        7.3682318287
  H        19.6099077727        5.5590886782        8.1045040151
  H        18.0355173073        4.5860006242        6.5480694571
  H        18.1721634874        5.1667501561        4.1071670180
  C        21.9780628097        5.3676720885        2.9127375023
  C        23.0336858072        4.7537456839        2.2985879633
  C        23.1513242682        4.5954326659        0.8931312420
  C        22.1048253756        5.0591870543        0.1217642312
  H        22.0255275073        4.8264239819       -0.9132654096
  H        23.8796229257        3.9162885129        0.4828408683
  H        23.8462375655        4.2166932850        2.9319297491
  H        22.0559557728        5.5381296706        3.9742972145
  C        19.6936036533        5.8857039026       -1.5346301021
  C        18.7758172932        4.9398837224       -2.0726791630
  C        18.8500306567        4.5965755040       -3.4627526626
  C        19.8742240613        5.0986302493       -4.2471338244
  C        20.7973832845        6.0222014910       -3.7532724108
  C        20.7309704004        6.3914240067       -2.4071974418
  H        21.4045923908        7.1120285721       -2.0742843283
  H        21.6217369228        6.2602836280       -4.4170581086
  H        20.0974845719        4.7095479979       -5.2333774226
  H        18.0913154897        3.9920065373       -3.9284370061
  H        17.9473725669        4.5613245686       -1.4823337527
