140

  C         3.8198653723       -0.4002560527       14.3520182049
  C         4.7184158571        0.4439438920       15.0997580563
  C         5.8002644162        1.1565552598       14.4810173649
  C         6.7563247778        1.9365776238       15.2166802361
  C         7.7300649878        2.6896650169       14.5452160575
  C         4.5461740740        0.7908843574       16.5663499598
  C         3.6662130183        1.8113093664       17.0125134245
  C         3.7598871220        2.2996628192       18.3308752786
  C         4.6694601339        1.7034314328       19.2402157846
  C         5.5015576447        0.6448930415       18.8089388231
  C         5.4372973409        0.2115025862       17.4484222336
  H         6.7024917393        1.8831372270       16.3050063898
  H         8.4530049821        3.2397876636       15.1592873990
  H         2.8605799053        2.2648909894       16.4535969772
  H         3.0969918042        3.1482970759       18.5523061490
  H         4.6948753634        2.0756935689       20.2839123804
  H         6.1981075125        0.2156881381       19.5438454952
  H         5.9789024179       -0.6842574122       17.2188332247
  C         3.8208686821       -0.2902555182       12.8582209800
  C         2.7899741792       -1.0186710170       12.1320619831
  C         1.6457074047       -1.5749785652       12.8566756813
  C         1.7326465809       -1.6756457387       14.2718568788
  C         2.8050622161       -1.1616463841       14.9912702449
  C         5.8866017707        1.1739923994       13.0065404590
  C         4.8376016920        0.4944107425       12.2269592626
  C         4.9383598899        0.9537872617       10.7421475970
  C         4.1159730468        2.0320309413       10.4007165929
  C         4.2704524395        2.6810383883        9.1861280543
  C         5.2638489309        2.2165281646        8.2925723904
  C         6.0695111903        1.1054616054        8.6116254640
  C         5.8604899804        0.4359788881        9.8326930110
  H         6.5050318227       -0.3479857202       10.2027421119
  H         6.7473711451        0.7752347208        7.8545582675
  H         5.4101896965        2.5745345567        7.2861796329
  H         3.7172720168        3.5029124418        8.7682021732
  H         3.3925992484        2.4869254326       11.0596204792
  C         6.9800942749        1.8372317312       12.3844595966
  C         7.8288737387        2.6320209845       13.1403991508
  H         8.7053006437        3.0419852080       12.6878744494
  H         7.0936170222        1.8986104962       11.2921451815
  C         3.0573521531       -1.5066139589       16.4375969270
  C         3.9488526239       -2.4338540347       16.9353589130
  C         3.9616635275       -2.7759974712       18.3631501080
  C         2.9883609138       -2.2838334435       19.1737294475
  C         2.0425944998       -1.3532810361       18.6407542414
  C         2.0793264288       -0.8881973687       17.3601654630
  H         1.4482851627       -0.1811679562       16.8895313241
  H         1.4022763896       -0.8976377042       19.3960373379
  H         2.8977260871       -2.5728652067       20.1924566189
  H         4.6707091000       -3.5138649167       18.7134042621
  H         4.6221384882       -2.9862003594       16.2461955434
  C         0.6565190533       -2.4210764285       14.9247850589
  C        -0.2713113343       -3.1389104965       14.1920469608
  C        -0.3118929367       -3.0035607536       12.7874437547
  C         0.6168821578       -2.2392844549       12.1221420657
  H         0.6459817384       -2.0597769062       11.0358037878
  H        -1.0522759201       -3.6120491508       12.2377319689
  H        -1.0034109478       -3.7038291879       14.7757805394
  H         0.5145530996       -2.4404928779       15.9981760922
  C         2.8592601534       -1.3059114899       10.6846306133
  C         3.9355186031       -2.0573594319       10.1816584977
  C         4.1461392191       -2.3391196643        8.8134033254
  C         3.2478874311       -1.8266259977        7.8707598728
  C         2.1949354823       -1.0624334527        8.3611302925
  C         2.0959522892       -0.6560276178        9.7184813539
  H         1.2923352041        0.0611709670       10.0838346694
  H         1.5057229549       -0.6738182818        7.6220687156
  H         3.3544363294       -2.0317879191        6.8301202766
  H         5.0283427092       -2.9082094846        8.4714472648
  H         4.7411662661       -2.2510734870       10.9287735108
  C        10.8165954869       -0.2070011284       14.2398287999
  C        11.9124846564        0.3918779202       14.9628579072
  C        12.9751406585        0.9509772986       14.3246300344
  C        14.1087925611        1.4518800157       15.1010726585
  C        15.1355583302        2.1346713389       14.4627822349
  C        11.8405365874        0.7331683487       16.4939236549
  C        11.0024742398        1.7827715085       16.8859866194
  C        10.9127523482        2.2133061642       18.1613872342
  C        11.6591287105        1.6023695380       19.1798135162
  C        12.4309135868        0.5223015799       18.8717557622
  C        12.4790375673        0.0538089529       17.5141436758
  H        14.1153198320        1.4475212044       16.2231092518
  H        16.0304739904        2.4640130005       15.0642596531
  H        10.4073857671        2.3253347285       16.1486611392
  H        10.4377308499        3.1772513305       18.2646182644
  H        11.5499269709        1.9142387440       20.1894507815
  H        13.0032773752        0.0221772284       19.6490829946
  H        13.0428998320       -0.8008374845       17.1564430227
  C        10.8195873134       -0.2007204773       12.7472162045
  C         9.8650930473       -0.8840833033       11.9331865830
  C         8.6828011504       -1.4265668931       12.6370087968
  C         8.7515227210       -1.4751834556       14.1159346117
  C         9.8211476879       -0.9756171905       14.9100928804
  C        12.9468709698        1.0988461848       12.8969708476
  C        11.9201343218        0.5579680502       12.1223173823
  C        11.8423597611        0.9455844168       10.7135276161
  C        10.6747006257        1.6909384372       10.3113795075
  C        10.6690181799        2.1736028885        9.0094361270
  C        11.7181888132        1.8579713459        8.1889737987
  C        12.8674576835        1.1399064178        8.5490456215
  C        12.9505706158        0.6623679582        9.8491302731
  H        13.6835570260       -0.1363263262       10.1501495741
  H        13.6922137719        0.9765646119        7.8147334275
  H        11.6716587184        2.1218881200        7.1829112911
  H         9.7698249486        2.6730751534        8.5809029003
  H         9.8707059159        1.8923802213       11.0224340752
  C        14.0628594421        1.7455978745       12.2947819439
  C        15.1287363402        2.2962399889       13.0342212338
  H        15.9627979610        2.8615159798       12.5962843699
  H        14.0444487409        1.9765932778       11.2634257047
  C         9.9934648038       -1.4561393238       16.3618716535
  C        10.9034681720       -2.5551552066       16.6903664978
  C        11.0087962745       -3.1126325705       17.9517404457
  C        10.2284402015       -2.4943763456       18.9533209511
  C         9.4306248537       -1.3693582203       18.6531586113
  C         9.2544946076       -0.9133107577       17.3534672857
  H         8.5681080246       -0.0945565993       17.1714385493
  H         8.8405277215       -0.9385024897       19.4360484717
  H        10.2148491213       -2.8597977097       19.9464049195
  H        11.7337425989       -3.9527036320       18.1463153038
  H        11.5798913237       -2.9203923881       15.9309739834
  C         7.6763666825       -2.1491169317       14.8059181730
  C         6.6113630633       -2.6983121910       14.1743199203
  C         6.6107869779       -2.7888976622       12.7886596111
  C         7.5896167219       -2.1334811320       12.0228088635
  H         7.5650314541       -2.3421801504       10.9500703885
  H         5.7851563518       -3.3002393229       12.2492011065
  H         5.8169669253       -3.1586042661       14.6971063860
  H         7.5436760284       -2.1646832306       15.8924402579
  C        10.1253776487       -1.3299812636       10.5368358033
  C        11.0856523247       -2.3837178319       10.4194964351
  C        11.4798034234       -2.8604841618        9.1818922615
  C        10.8490643073       -2.5095639326        8.0129971319
  C         9.7690755367       -1.5738012066        8.1169553402
  C         9.3512654917       -1.0355273706        9.3707940266
  H         8.4563815408       -0.3826980351        9.3974408712
  H         9.2819439513       -1.2584990623        7.1794461148
  H        11.1413941730       -2.8856390853        7.0153667664
  H        12.1594490932       -3.7076971844        9.2247325792
  H        11.6448037370       -2.6242483865       11.2977823150
