140

  C         4.6539788085       -1.2556466845       13.7921938778
  C         5.7322719855       -0.6383717661       14.5317306420
  C         6.6997152173       -0.0516899317       13.7087906011
  C         7.7039772435        0.6733249346       14.4120364720
  C         8.5357389287        1.5765910878       13.7949973324
  C         5.6176044513       -0.2165715366       15.9493098894
  C         4.7573690518        0.8651511364       16.2297396659
  C         4.7770326994        1.4856290884       17.4618963267
  C         5.4904393525        0.8626782680       18.5767302131
  C         6.2391213395       -0.2369233509       18.2393811074
  C         6.3671177471       -0.7658093227       16.9995559853
  H         7.7655619931        0.5849349496       15.5280774794
  H         9.2812680966        2.0909925998       14.3776520635
  H         4.1532502845        1.2015582791       15.4117995948
  H         4.2312667235        2.3855324797       17.5981111601
  H         5.5359816563        1.2232664910       19.6264972889
  H         6.8221276219       -0.7050266152       19.0802754992
  H         6.9916557037       -1.6634148327       16.8177452295
  C         4.5948354567       -1.2459919313       12.2349001649
  C         3.4782743866       -1.8854505331       11.5848335034
  C         2.3480296918       -2.2962380511       12.2977013038
  C         2.3956702012       -2.2351250806       13.7476057517
  C         3.5277867905       -1.8041312400       14.4683615724
  C         6.6836564657        0.0624442904       12.2772040960
  C         5.5976105658       -0.5173881737       11.5793485962
  C         5.3194426959       -0.0813237385       10.1531433728
  C         4.5754851825        1.0160649792        9.9312865949
  C         4.6028192253        1.6259609019        8.7309245130
  C         5.2973287190        1.0939791566        7.6772617949
  C         6.1584738268        0.0142871117        7.8871313389
  C         6.1032233470       -0.6459684871        9.1370141919
  H         6.5833459556       -1.5441455143        9.4722023434
  H         6.8848240445       -0.2794471327        7.1039897369
  H         5.2711601341        1.5002276704        6.6998614192
  H         3.9246102271        2.4557453506        8.5179885745
  H         4.0799449144        1.6258415559       10.7405275815
  C         7.6240719754        0.8989413369       11.6307315932
  C         8.4549452903        1.7191664539       12.3739069389
  H         9.1375779814        2.3900311954       11.8424610058
  H         7.5494393490        1.0633782135       10.5745678661
  C         3.5694478913       -2.1611937944       15.8971979570
  C         4.4295614065       -3.1960281067       16.3079204192
  C         4.4682324138       -3.6699841526       17.5821753750
  C         3.7191897001       -3.0162702340       18.5631439333
  C         2.7919755279       -2.0181833806       18.1973174261
  C         2.7264133874       -1.6022992864       16.8766728016
  H         2.0032979249       -0.7944701852       16.6260349674
  H         2.2581923188       -1.4035804819       18.9417266658
  H         3.8608321323       -3.3547912460       19.6173781711
  H         5.1349262150       -4.4989907410       17.7824445934
  H         4.9859408982       -3.6262495902       15.4803825286
  C         1.2680039257       -2.7966489165       14.5030208329
  C         0.0929486004       -3.0499244779       13.8478388409
  C         0.0410893099       -3.1248800260       12.3613852991
  C         1.1776370934       -2.8351687900       11.6591228054
  H         1.3397665474       -2.7886541442       10.5364468777
  H        -0.8897011599       -3.4644259712       11.8966866993
  H        -0.7591274471       -3.2443822315       14.4580764606
  H         1.3152393411       -2.7986945751       15.6003237651
  C         3.5213533797       -2.2863377209       10.1016112514
  C         4.3398259751       -3.4278689870        9.8187533317
  C         4.4831107120       -3.8074818811        8.5009149715
  C         3.7653876335       -3.1798707968        7.4655443742
  C         2.8403464191       -2.1301688583        7.7674536345
  C         2.7943188080       -1.6612415816        9.0876110405
  H         2.0678623898       -0.8927475683        9.3376209780
  H         2.2548312290       -1.5879794829        7.0384767754
  H         3.9461334202       -3.5561594715        6.4367597211
  H         5.1189545318       -4.6158421490        8.0787218249
  H         4.9687770500       -3.8458943225       10.5887492888
  C        11.8780418040       -0.9833531412       13.7504974218
  C        12.8762236475       -0.2462374035       14.4530873706
  C        13.8768223941        0.4146547398       13.7035494696
  C        14.9969198248        1.0223954649       14.3905872225
  C        15.9668445767        1.6717084570       13.6896007095
  C        12.7280321066        0.1673632110       15.8670760174
  C        11.8499624553        1.2474792889       16.1010338238
  C        11.6108040061        1.7350183009       17.3462146687
  C        12.3939702825        1.2776509398       18.4199866222
  C        13.2747544424        0.2044933974       18.2565158477
  C        13.4145836020       -0.3714165420       16.9738621781
  H        15.0034844358        0.9560446024       15.4995729475
  H        16.8405169703        2.1233426912       14.2411485534
  H        11.3151781908        1.6451383667       15.2282928328
  H        10.7967763783        2.4688205961       17.4804824504
  H        12.2980545279        1.8327188461       19.3533259003
  H        13.8073329947       -0.2156272543       19.1017769487
  H        14.1871661683       -1.2302784613       16.7420569234
  C        11.7507682164       -0.9246465956       12.2725269795
  C        10.6770025513       -1.5786235554       11.5665910970
  C         9.7342813119       -2.2723403073       12.2763793824
  C         9.8481552204       -2.3602016696       13.7290748455
  C        10.8903417403       -1.7940064421       14.4383774553
  C        13.8378138275        0.4320951664       12.2657571364
  C        12.7462357434       -0.1172371653       11.6059342185
  C        12.5800979906        0.3522116454       10.1924290770
  C        11.6354413185        1.3508185802        9.9109674374
  C        11.5510457720        1.9762257500        8.6802934888
  C        12.4081486819        1.6532398939        7.6407440857
  C        13.3654491103        0.5813111240        7.9197400945
  C        13.3943740020       -0.0498874169        9.1227384526
  H        14.0464228708       -0.9197935033        9.2500508176
  H        14.0187446002        0.2036635479        7.1254222082
  H        12.3699193942        2.1161010493        6.6737097754
  H        10.6518692291        2.6468863476        8.5152422154
  H        10.8763277957        1.6076593833       10.6325820485
  C        14.8912863302        1.1849555028       11.5972661834
  C        15.9522229311        1.7051169474       12.2511013731
  H        16.7890370202        2.1738079551       11.7181073278
  H        14.8970162129        1.1802593641       10.5034672198
  C        10.9821155435       -2.0938038991       15.9153304492
  C        11.8481072873       -3.1304094109       16.4336734683
  C        11.8734214474       -3.4742956884       17.7567252764
  C        10.9288935312       -2.9048052380       18.6215489700
  C        10.0652164823       -1.8803765233       18.1696834327
  C        10.0597517765       -1.4817331198       16.8084787361
  H         9.5168717040       -0.6418714236       16.3706173761
  H         9.2916248466       -1.4728454419       18.8104820195
  H        10.9687375040       -3.1057384383       19.6687865391
  H        12.4784629014       -4.3586525988       18.0280183842
  H        12.4986351501       -3.6055011087       15.7079860424
  C         8.8356823033       -3.0006596860       14.4338158925
  C         7.7668423520       -3.6629628469       13.8041443066
  C         7.6546112667       -3.5867161986       12.4074135643
  C         8.6753475592       -3.0297587274       11.6586242421
  H         8.6371327873       -3.0773354852       10.5614800138
  H         6.7528820235       -4.0179613283       11.9758307825
  H         7.0864500244       -4.2836730846       14.4278286762
  H         8.8986082173       -2.9308816886       15.5306850574
  C        10.7727674647       -1.8810793156       10.1024966966
  C        11.4812498022       -3.0230890847        9.8126715711
  C        11.4619784745       -3.6712293568        8.5490990304
  C        10.7877056695       -2.9949881940        7.5113584675
  C        10.0820147096       -1.7983960977        7.8052171162
  C        10.0549566304       -1.2654226283        9.0896614171
  H         9.5290573395       -0.4195007580        9.4021422864
  H         9.4621153385       -1.4296878980        6.9999600592
  H        10.6265257045       -3.4543954917        6.5577419600
  H        11.9636022430       -4.6186440721        8.4659204224
  H        11.9410808072       -3.5503402875       10.6078389825
