140

  C        11.5923276636        7.0266476024        0.9530977787
  C        10.4975207060        7.6277197028        1.6114871488
  C         9.4251133619        8.2307366553        0.8760317819
  C         8.2485944643        8.7353512945        1.4601464282
  C         7.1826281443        9.3276668926        0.7414256202
  C        10.5883570911        7.9491587950        3.1164671462
  C        11.4893296393        8.9504721327        3.5034803966
  C        11.3408126093        9.6135295746        4.7369658034
  C        10.3655060915        9.1617298424        5.6360701556
  C         9.4911961406        8.1202774414        5.2603254606
  C         9.6444830920        7.5689270440        3.9712726847
  H         8.0580792673        8.7451298552        2.4998027975
  H         6.2282528518        9.5797068249        1.2372527185
  H        12.2144896729        9.2474993143        2.7728887088
  H        12.1005637600       10.3588312264        5.0600862304
  H        10.1784847027        9.6746270411        6.6103275723
  H         8.8511703051        7.6431652664        6.0275195742
  H         8.9415591107        6.7903690619        3.6917180911
  C        11.6673098376        6.9673255172       -0.5156291130
  C        12.6459684506        6.1464397483       -1.1830645545
  C        13.6797162417        5.5301856810       -0.4068083243
  C        13.5745926660        5.4322089268        1.0353499739
  C        12.4806658030        6.0846564415        1.6827145331
  C         9.5342736201        8.3350746220       -0.5770552812
  C        10.6659864344        7.7379429980       -1.2537601168
  C        10.6036607900        7.9730736276       -2.7173430514
  C        11.2898342337        9.1000922252       -3.1509719578
  C        11.1900170156        9.5155255749       -4.4567468277
  C        10.3738076427        8.8315219906       -5.3373259471
  C         9.7292376212        7.6549246630       -4.9641194120
  C         9.8411666152        7.1685888802       -3.6251026032
  H         9.3992072634        6.2448757277       -3.3333754011
  H         9.1479373635        7.1505335975       -5.7131502352
  H        10.0936076783        9.2517108737       -6.2972940644
  H        11.6757118774       10.4565031279       -4.8530361657
  H        11.9308263538        9.5997564682       -2.3864298657
  C         8.3763473272        8.8079665829       -1.2857484994
  C         7.2416388665        9.3253569817       -0.6990267626
  H         6.4122379561        9.6278087478       -1.2466530465
  H         8.4964770923        8.8671534671       -2.3083038432
  C        12.2698616926        5.8157259229        3.1638145331
  C        11.4114697739        4.7798882780        3.5265013866
  C        11.4433192456        4.1930974461        4.8082381001
  C        12.3875527276        4.7334582516        5.7405659439
  C        13.3128564595        5.6908907295        5.3537115656
  C        13.2618598565        6.2365869731        4.0551739846
  H        13.9365182613        7.0554492071        3.7895933445
  H        14.1460881162        5.8499342281        6.0694830141
  H        12.4476153075        4.3812961168        6.7930258835
  H        10.7313302810        3.4423106948        5.1213796955
  H        10.6604328054        4.4323894223        2.7972506651
  C        14.5735595720        4.7280068479        1.6898234823
  C        15.6197961100        4.1941413891        1.0673325620
  C        15.7135205737        4.2445480713       -0.3769806113
  C        14.7792913998        4.8479971785       -1.0936585402
  H        14.7528666952        4.8589146292       -2.1518302857
  H        16.5339039043        3.7364449475       -0.7901022272
  H        16.3897664181        3.5347407973        1.4960859247
  H        14.3801953764        4.5214792961        2.7369877162
  C        12.4643766613        5.7637142137       -2.6563000479
  C        11.8141947134        4.5742027261       -2.9704208558
  C        11.6047081577        4.1151049339       -4.2624715889
  C        12.1335726256        4.8391672275       -5.3367165730
  C        12.9794300023        5.9252614074       -5.0191498205
  C        13.0510780488        6.4364720681       -3.7051228159
  H        13.5692496057        7.3618739649       -3.5663667824
  H        13.4798374238        6.6023177238       -5.7555881016
  H        11.8620998074        4.6567130422       -6.4213017956
  H        10.9682756580        3.2464586678       -4.4432054236
  H        11.4625871322        3.9004584761       -2.2339011840
  C        18.5353255837        7.1914791724        0.7606590820
  C        17.4734992792        7.8043753625        1.4203525340
  C        16.3912703368        8.3961910592        0.7034973743
  C        15.3045764746        9.1181469705        1.4489730261
  C        14.2896865857        9.7164224052        0.6727697897
  C        17.5128662514        8.1426131852        2.8499629848
  C        18.4475037408        9.0924805374        3.2941589823
  C        18.4584745407        9.5346896465        4.6677375123
  C        17.5125879670        9.0095888202        5.5261450654
  C        16.6123121866        8.0414970543        5.1310168209
  C        16.6807079000        7.5706201094        3.8308658954
  H        15.2251199065        9.0752735391        2.5157023400
  H        13.4035200465       10.1017595497        1.2057104102
  H        19.1209660416        9.5738725947        2.5668326995
  H        19.1318429269       10.2773433226        5.0902215124
  H        17.3796832418        9.5655452462        6.4746364642
  H        15.8729142419        7.6805193771        5.8372044804
  H        15.9039952997        6.9091666196        3.4534814151
  C        18.5710251442        7.1500971617       -0.7062951508
  C        19.4911827786        6.3614532203       -1.4382304137
  C        20.5482684111        5.7352804196       -0.7594000886
  C        20.6518243910        5.8031067170        0.6953847044
  C        19.6634997758        6.4910513991        1.4421533978
  C        16.3830977738        8.3920240307       -0.6990017955
  C        17.5236945468        7.8630774536       -1.4031740106
  C        17.5903706613        8.1614625201       -2.8869074044
  C        18.4467599339        9.1465124540       -3.2771090270
  C        18.6161318814        9.5862853211       -4.6983830606
  C        17.6922097126        9.0507706148       -5.5961289837
  C        16.7915106790        8.0304834905       -5.2134972481
  C        16.7738719338        7.5379541815       -3.8616834395
  H        16.2568681696        6.6415855059       -3.5993227871
  H        16.1748270812        7.6089513264       -5.9289858135
  H        17.6094808564        9.4087418374       -6.6601441237
  H        19.4223468155       10.2160778479       -5.0304570161
  H        19.1065173006        9.5968685321       -2.5265184039
  C        15.2614862037        9.0571489863       -1.4291325338
  C        14.2671751903        9.6661962685       -0.7262311442
  H        13.4326039294       10.0830181016       -1.2692016986
  H        15.2777240570        9.1091144878       -2.5174037299
  C        19.5850502726        6.1126425781        2.8808378035
  C        18.6830772001        5.1220055705        3.2803772864
  C        18.7174953252        4.6380899302        4.6266437464
  C        19.6225863916        5.2026884508        5.5441802240
  C        20.5702625715        6.1768626169        5.1469720692
  C        20.4930667298        6.6414210089        3.8096993485
  H        21.1303717844        7.4056867721        3.4502628545
  H        21.2991878655        6.6300754761        5.8260795168
  H        19.7738240776        4.9087370744        6.6137123242
  H        18.0397743183        3.8237298152        4.9387850589
  H        17.9961217724        4.7090727206        2.6214001228
  C        21.7859425090        5.0751059734        1.3739581450
  C        22.7532850852        4.4578611754        0.5712774681
  C        22.6576969136        4.4328192030       -0.7938817818
  C        21.5938985681        5.0081871805       -1.4701237262
  H        21.6872154349        5.1902094175       -2.5342053577
  H        23.4068061373        3.8777533049       -1.3663109083
  H        23.5854060251        3.8881587830        0.9789169981
  H        21.7664431645        5.0961125586        2.4401888139
  C        19.2609100355        5.9277456704       -2.8318115187
  C        18.2913393096        4.8677708943       -2.9065020782
  C        18.0014766509        4.2529913682       -4.1307630062
  C        18.7424732273        4.7311857226       -5.3265999802
  C        19.7448282005        5.7273475187       -5.1142487868
  C        20.0353648404        6.2973496619       -3.9238078737
  H        20.6786673744        7.1045752497       -3.8218753109
  H        20.3515679632        5.9609025814       -6.0024847428
  H        18.6985463376        4.2523879271       -6.2777868080
  H        17.4208363683        3.3096843556       -4.1085394936
  H        17.8672746986        4.6170183036       -1.9547878873
