140

  C         2.0130332902        0.7391846515       14.8439003342
  C         3.1431179692        1.3700762370       15.5080455451
  C         4.2240771136        1.9220885225       14.7301680459
  C         5.3710254177        2.4464398353       15.4184379143
  C         6.3885894052        3.0759751003       14.7165205876
  C         3.1920991340        1.6431631972       17.0204924926
  C         2.4460458954        2.6933686013       17.5569625284
  C         2.5772530929        2.9463086909       18.9095592542
  C         3.4606836688        2.2927401216       19.7382000490
  C         4.2644897063        1.2764063182       19.1992553464
  C         4.0999230607        0.9177881375       17.8541333718
  H         5.5330460832        2.3420135452       16.4543566859
  H         7.2793413955        3.4731316904       15.2038097803
  H         1.8200149604        3.2386428673       16.8789952786
  H         2.0869254534        3.8585973920       19.2428635464
  H         3.6266363992        2.6720330805       20.7322172496
  H         5.0669464912        0.8481912970       19.7921136089
  H         4.8295139007        0.2349062247       17.3609782763
  C         1.9552989594        0.8735784170       13.3863635485
  C         0.9058107002        0.2238473960       12.6366586976
  C        -0.2102340667       -0.3054397322       13.4043307109
  C        -0.2251332046       -0.3474470495       14.8625100445
  C         0.9220483537        0.0072857052       15.5298724930
  C         4.1717389355        1.9920801332       13.2936266194
  C         2.9518627081        1.6445690321       12.6843039572
  C         2.8524850610        2.0275264945       11.2591552256
  C         1.9279174520        2.9786580391       10.8295508187
  C         1.9386347390        3.5212736673        9.5477500845
  C         2.7332918397        2.8561459196        8.5555843179
  C         3.5367969326        1.7235342040        8.9577351399
  C         3.7193272091        1.3861586331       10.2854542965
  H         4.3587271371        0.5372785348       10.5800275647
  H         3.9884721518        1.1558548111        8.1059814424
  H         2.6520153534        3.1718949994        7.5121938699
  H         1.2389872111        4.3471678171        9.2719953440
  H         1.3019500962        3.4405350029       11.6246204636
  C         5.1943198272        2.8320409932       12.6506018125
  C         6.3126795321        3.2048828371       13.3062578746
  H         7.1120320324        3.8091209245       12.9133655324
  H         5.0198537908        3.0691010160       11.5856711424
  C         0.9027490414       -0.3176242065       16.9614799200
  C         1.6566076639       -1.4240695663       17.5294708197
  C         1.5156612930       -1.8429653251       18.8509885534
  C         0.7377264352       -1.0559426017       19.7088687328
  C         0.0745728728        0.0745710929       19.2653383858
  C         0.1772260614        0.4375480728       17.8989187249
  H        -0.3967045415        1.2698158291       17.5353002177
  H        -0.3229065407        0.6826964694       20.0353259236
  H         0.7522753946       -1.3887845218       20.7924491037
  H         2.0587736995       -2.8160266319       19.0611947050
  H         2.2642887984       -2.0465823457       16.8928516484
  C        -1.2604671723       -1.1088930992       15.5225554162
  C        -2.1878938540       -1.7664723122       14.7564611879
  C        -2.2822974149       -1.7371883522       13.3366901441
  C        -1.3053380195       -1.0531728840       12.7296420630
  H        -1.3090423433       -1.1335055769       11.6555917629
  H        -3.0998070205       -2.1361296027       12.7768652003
  H        -2.9057202658       -2.4372708813       15.1753932702
  H        -1.2547388903       -1.1846681688       16.5702559857
  C         0.8592463061       -0.0269149081       11.1553567095
  C         1.5062644684       -1.2123346518       10.7221616119
  C         1.4827440366       -1.6263192868        9.4149324543
  C         0.6496991933       -0.9273556610        8.5271469093
  C        -0.1049508018        0.1963759793        8.9182115284
  C         0.0119420084        0.6425630864       10.2362258684
  H        -0.4065788350        1.5698737361       10.6304303547
  H        -0.8066468205        0.5679947694        8.1427897403
  H         0.6004939457       -1.2079642450        7.4865228992
  H         2.1107745459       -2.5189081592        9.1070354797
  H         2.0842083024       -1.7462518833       11.4627639510
  C         9.2551299542        0.9023258028       14.8890161639
  C        10.2879322162        1.5278568729       15.6083607669
  C        11.3966603061        2.0821987575       14.8491190614
  C        12.5829343352        2.7069588072       15.5219498189
  C        13.5475593192        3.3649232542       14.8025528107
  C        10.2638424306        1.7950124902       17.1084533887
  C         9.3485970177        2.8098561268       17.5769590716
  C         9.3515191436        3.2204219743       18.9186342390
  C        10.2615453472        2.6654208861       19.8303361117
  C        11.1551009662        1.6930668617       19.3939501105
  C        11.1367261240        1.2415229798       18.0830847146
  H        12.6138298174        2.8183355062       16.6199260835
  H        14.4642014710        3.8847544390       15.1964700929
  H         8.6870198806        3.2409138141       16.8913923138
  H         8.7369319082        4.0366866187       19.2356637873
  H        10.3784344858        2.9970926905       20.8995819766
  H        11.9235832786        1.2663907165       20.1143078140
  H        11.7263915863        0.3704099165       17.8393840679
  C         9.2569455813        0.8562019460       13.4083969202
  C         8.1342805762        0.2158892296       12.7797069492
  C         7.0973305644       -0.3915573017       13.5187409967
  C         7.1278773928       -0.3739780469       14.9588561890
  C         8.2647167331        0.1654760228       15.6194462591
  C        11.3412717199        2.2466677432       13.3651626779
  C        10.2546052155        1.6566590988       12.6912466151
  C        10.1840325961        1.8894152282       11.2035614403
  C         9.5146645031        3.0432230562       10.7525501491
  C         9.5763173357        3.5108223402        9.4487918519
  C        10.2594147049        2.6997675344        8.5068874892
  C        10.9865501375        1.5836930288        8.9398418417
  C        10.8694846494        1.1218560838       10.2232089163
  H        11.2662797343        0.1639837613       10.5416573553
  H        11.5405467251        0.9827120740        8.2161047464
  H        10.2271205349        2.9955418526        7.4465822270
  H         8.9460464313        4.4281113784        9.2850020462
  H         9.1480280262        3.6744627898       11.5350530982
  C        12.4210216250        2.9472129027       12.6826999665
  C        13.4955953627        3.4294941188       13.4204524950
  H        14.2813794380        4.0157582463       12.9396212688
  H        12.3769071464        3.2199795874       11.6109775073
  C         8.5012797548       -0.4073156211       16.9272090970
  C         9.3189453344       -1.5248867278       17.1486060549
  C         9.3314353747       -2.0883079044       18.4557425623
  C         8.6253178962       -1.5660990842       19.5256118658
  C         7.8352102432       -0.4285745478       19.3670854891
  C         7.7994361017        0.1187010148       18.0127701895
  H         7.1833828845        0.9980897528       17.8199382462
  H         7.2262634699        0.0461992247       20.1523701869
  H         8.7814455000       -2.0680587320       20.4659740994
  H         9.8514404129       -3.0274199999       18.6851024952
  H         9.9965001514       -1.9709011641       16.4462772484
  C         6.1648720361       -1.2550123566       15.6420500859
  C         5.0975366194       -1.7568376882       14.9127431751
  C         4.9150804892       -1.4913095156       13.5636339271
  C         5.9008889865       -0.9084359926       12.8738975186
  H         5.6971090114       -0.7925205218       11.7871137546
  H         4.0245473783       -1.7229579835       13.0161381656
  H         4.3354631691       -2.3570792972       15.4378010489
  H         6.3724335228       -1.6537538476       16.6636651872
  C         8.0391900949       -0.1433405867       11.3697550185
  C         8.6608321636       -1.3198402188       11.1032183916
  C         8.8367236851       -1.7459085676        9.7794866262
  C         8.2362190546       -0.9873416153        8.7177222015
  C         7.4642632776        0.1356220373        9.0300071975
  C         7.4427968925        0.5930653827       10.3603018516
  H         6.9279216247        1.5263203663       10.5384119711
  H         7.0296907406        0.7178664397        8.2526664478
  H         8.4925713999       -1.1959679384        7.6512351929
  H         9.4466756135       -2.6272523627        9.6087229224
  H         8.9825728354       -1.9617268999       11.8836014859
