140

  C         4.9127003276       -1.4679855527       13.9235453342
  C         5.7669343679       -0.6326055893       14.6682146783
  C         6.8440458965       -0.0116895986       14.0031622028
  C         7.7395628609        0.8137385856       14.7725057013
  C         8.8616164098        1.2786967148       14.1299074510
  C         5.6823925358       -0.3738128383       16.1538812782
  C         4.8996432140        0.6702380505       16.5925297424
  C         4.9583082808        1.1048427022       17.9450599683
  C         5.9523533059        0.6063208200       18.7809876330
  C         6.7397623527       -0.4717131502       18.3220536738
  C         6.5910530620       -0.9829430341       17.0058622266
  H         7.6355927506        0.8456568483       15.8310350884
  H         9.5453313028        1.7633179794       14.7666002667
  H         4.2181240384        1.1272058848       15.9415540191
  H         4.1213793007        1.7982094407       18.2519909894
  H         6.0103264698        0.8889865283       19.8273114329
  H         7.4815181488       -0.8876287809       19.0189204288
  H         7.2813521560       -1.8204841652       16.6496444818
  C         5.0593081783       -1.5793946242       12.4909082008
  C         4.0949293332       -2.2335318810       11.6941142897
  C         2.9335012562       -2.7650725408       12.2880985688
  C         2.8529895828       -2.7566217257       13.7421718244
  C         3.9186065008       -2.2185684184       14.5060892239
  C         6.9579097224       -0.0524289930       12.5825234637
  C         6.0161711654       -0.7507477515       11.8053792735
  C         6.0113175280       -0.4954268953       10.3146256819
  C         5.3053190480        0.5552230189        9.8400920391
  C         5.3403565883        0.8865396919        8.4365170636
  C         6.0574269861        0.1400167718        7.5462668814
  C         6.7319606285       -1.0080813407        8.0200969344
  C         6.7367489771       -1.2893144383        9.3911033080
  H         7.2858501047       -2.1447686063        9.7645776748
  H         7.3577631147       -1.5323927422        7.2985128784
  H         6.0842746714        0.3876720688        6.4964587426
  H         4.7803237972        1.7397005062        8.1276660781
  H         4.8186751469        1.2395506941       10.5181750622
  C         8.1264523284        0.5291568274       11.9324022642
  C         9.0816222719        1.1195030867       12.7165862518
  H         9.9151586953        1.7557093619       12.3478895687
  H         8.2017898272        0.4664971465       10.8071126363
  C         3.8579971267       -2.6009945891       15.9821194112
  C         4.7833300278       -3.5242735025       16.5305314620
  C         4.5978160215       -3.8743276443       17.9072728509
  C         3.6121173484       -3.4069104704       18.7385714127
  C         2.8242916066       -2.3309588196       18.1844300005
  C         2.9337317682       -1.9583196036       16.8320310552
  H         2.2361220277       -1.1555081250       16.4574842010
  H         2.1244619030       -1.7797102594       18.8285036512
  H         3.4862679652       -3.7356617305       19.7458307413
  H         5.2677450144       -4.6353589248       18.3222827466
  H         5.5931268213       -4.0074160874       16.0206081316
  C         1.6871181923       -3.3317175807       14.3546212416
  C         0.6299994219       -3.8225408709       13.6609458065
  C         0.7297196880       -3.8622744475       12.2598491423
  C         1.8136593052       -3.3971759239       11.5766573032
  H         1.9022108894       -3.5172908675       10.5020806633
  H        -0.0172891457       -4.3713796161       11.6141688492
  H        -0.2174653285       -4.2119624388       14.1416580129
  H         1.6513885609       -3.4055273801       15.4667391731
  C         4.1818366780       -2.5970037526       10.2618927165
  C         4.9059169972       -3.7515916718        9.9162139841
  C         5.0518867952       -4.2743041740        8.6425160563
  C         4.2882871647       -3.6171548714        7.6469669626
  C         3.6426298967       -2.4256634715        7.8925059405
  C         3.5626325870       -1.8922425141        9.1825314585
  H         3.1186173645       -0.9474725438        9.2689000263
  H         3.2518236570       -1.7564620684        7.0603738267
  H         4.3278994128       -4.0293234158        6.6366733342
  H         5.6077347632       -5.1101529058        8.3088597629
  H         5.3619247005       -4.2023247083       10.8182142200
  C        12.2512071381       -1.6825262894       13.6938300327
  C        13.3088147001       -0.9699576153       14.3645532121
  C        14.4210668054       -0.4689828144       13.6235717644
  C        15.4404088007        0.3511903013       14.1889684712
  C        16.4348714393        0.9719124943       13.4928611176
  C        13.2584377763       -0.4875314579       15.7608986757
  C        12.4230687891        0.5941462891       16.0931616595
  C        12.5110831609        1.1743076907       17.3518621091
  C        13.4013203504        0.7567768608       18.3068210017
  C        14.2462839035       -0.3351428001       17.9865115164
  C        14.1536322866       -0.9747548435       16.7068206957
  H        15.6713370027        0.3285630617       15.2062853250
  H        17.2178222154        1.5723811589       14.0678879160
  H        11.6372783323        0.9476919549       15.3996170095
  H        11.8636747306        1.9988243290       17.5489106547
  H        13.5196770285        1.3869915014       19.1785350016
  H        15.0912162918       -0.5516952607       18.6583342570
  H        14.8413673466       -1.7395117451       16.4296377895
  C        12.1834891972       -1.6905645700       12.2079806746
  C        11.0620703507       -2.2732279715       11.5553429950
  C        10.0390026485       -2.7451003171       12.3580058789
  C        10.1071030464       -2.8260741393       13.7649996332
  C        11.2623913320       -2.3485121566       14.4518045295
  C        14.4233533898       -0.5536247911       12.1663836723
  C        13.2580825575       -1.0630948065       11.4577614217
  C        13.0455424666       -0.4477923522       10.0854972617
  C        12.2560266416        0.7056449344       10.0127407533
  C        12.1051934152        1.4531566315        8.8030591507
  C        12.7743235916        0.9529365781        7.6517455265
  C        13.4765887025       -0.2001854153        7.6553506081
  C        13.6407329680       -0.9226319477        8.8574915328
  H        14.2590013443       -1.8210828110        8.8708433559
  H        14.0076720111       -0.5596370605        6.7308351860
  H        12.5150665561        1.5319323802        6.7092859569
  H        11.4993770409        2.3375286623        8.8195272507
  H        11.7089299657        1.0268207591       10.9318759145
  C        15.4340489506        0.2159706991       11.4052459427
  C        16.3719471828        0.9523027014       12.0746864320
  H        17.1335155627        1.4940426956       11.5137980207
  H        15.3595281972        0.2682816031       10.3302701652
  C        11.3251882986       -2.7144994940       15.8779733119
  C        12.2239061662       -3.7219004205       16.3287300765
  C        12.3435630365       -4.0341980576       17.6773275981
  C        11.5321648662       -3.4071346138       18.6262886903
  C        10.6341704268       -2.4138855409       18.1908489077
  C        10.5575619080       -2.0596515136       16.8662601994
  H         9.8891934600       -1.2387073731       16.5910973287
  H        10.0521602857       -1.8799655866       18.8578881299
  H        11.6569778702       -3.6095145263       19.6604882717
  H        13.1167971046       -4.7780872628       17.9925272783
  H        12.8552497407       -4.1914289136       15.5856491264
  C         9.0141006052       -3.4606238270       14.4975492275
  C         7.8677764019       -3.9095733784       13.7811353343
  C         7.8386394069       -3.8963050447       12.4168136586
  C         8.8942084040       -3.3542445216       11.6930682120
  H         8.9573294089       -3.3126004345       10.5669316562
  H         6.9290128500       -4.1318764057       11.8429798822
  H         7.1169862180       -4.4060731784       14.2806790208
  H         9.0711192302       -3.6179826841       15.5823311282
  C        11.1520967198       -2.4698161633       10.0272663622
  C        11.9585126734       -3.5580142460        9.5784879310
  C        11.9377350914       -3.8849890004        8.2376983238
  C        11.1075665701       -3.2067429831        7.2541331124
  C        10.4368602980       -2.0506749699        7.6782762796
  C        10.4841471704       -1.7437251478        9.0521840547
  H         9.8589208680       -0.9633712291        9.3847517340
  H         9.8779114140       -1.4316259156        7.0296826376
  H        11.1011181297       -3.5322246595        6.2507830367
  H        12.4281615736       -4.8612874159        8.0399961369
  H        12.5361168705       -4.1531108652       10.2720527296
