140

  C        12.5385870467        5.7004843968        0.1193593278
  C        11.4271807175        6.3620394509        0.7816159648
  C        10.3887299421        6.9997511511        0.0325746047
  C         9.3620900517        7.7478465111        0.6254098601
  C         8.3567952060        8.3050170670       -0.1604751318
  C        11.6046093573        6.6671719529        2.2334737428
  C        12.2231205748        7.8283807599        2.7208972956
  C        12.1901782420        8.1613904090        4.0745220433
  C        11.4268929148        7.5010671842        5.0418370243
  C        10.7760756597        6.3466147444        4.5706472177
  C        10.8608393777        6.0245812651        3.1601905652
  H         9.4141988280        7.9024624209        1.6911591802
  H         7.5966533862        8.9570575659        0.2777361202
  H        12.7257659893        8.5427792869        2.0222914219
  H        12.7265680176        9.1054377151        4.3100017543
  H        11.4774496515        7.7361911861        6.1011075118
  H        10.1813261643        5.7021844699        5.2478250590
  H        10.3727561456        5.1688457402        2.8674191970
  C        12.6388643630        5.7760494898       -1.3976240331
  C        13.6773382272        5.1380067964       -2.1083177871
  C        14.7234533279        4.5788908985       -1.3810360946
  C        14.6841340975        4.5511235019        0.1174229179
  C        13.5595602730        5.0004442891        0.8164169123
  C        10.4235354563        6.8352199102       -1.3582134498
  C        11.5846585769        6.4381260860       -2.0531821740
  C        11.6220363767        6.7290169488       -3.5389367775
  C        12.3759890707        7.7220291013       -4.0904911462
  C        12.2107193872        8.0507661804       -5.4256322586
  C        11.1732241922        7.4731587278       -6.2275437501
  C        10.5035910699        6.3633245982       -5.7146980571
  C        10.7757793756        6.0267711760       -4.3844210340
  H        10.1472866157        5.2021957846       -3.8994559471
  H         9.7513606098        5.8502867823       -6.2559501305
  H        10.9406162570        7.8886830226       -7.1498454905
  H        12.7328564780        8.9547722349       -5.8766149258
  H        13.1001128288        8.3508916879       -3.5125108078
  C         9.3296150974        7.4044728262       -2.1518118378
  C         8.3255069273        8.0608621823       -1.5499688855
  H         7.5480094246        8.5930963832       -2.1256720852
  H         9.4489802721        7.5094466751       -3.2010371254
  C        13.4271643829        4.6350146781        2.3246721362
  C        12.6348997575        3.6057136774        2.7956758703
  C        12.5910167734        3.2475304122        4.1293130460
  C        13.4210284365        3.9899376650        5.1064046211
  C        14.1963118530        4.9830169734        4.5935785795
  C        14.2848006055        5.2771148716        3.2113515287
  H        14.8846726576        6.1124551177        2.8571242935
  H        14.8701676311        5.5877773983        5.1647001709
  H        13.3115833761        3.7501302979        6.1735282256
  H        11.9365380801        2.3888012816        4.3259014473
  H        11.9649394484        3.0629755258        2.1119848237
  C        15.7837331811        3.9376156247        0.8076846754
  C        16.8018981981        3.3268982374        0.1140741227
  C        16.8201588642        3.3474669523       -1.3532237318
  C        15.7976091907        3.9466554941       -2.0418126036
  H        15.6999688120        3.8819925953       -3.1144422153
  H        17.4961589736        2.7346078056       -2.0033264237
  H        17.6523247529        2.9696920204        0.6044912328
  H        15.7337602798        3.8814018710        1.8817448825
  C        13.5904866588        4.7186967800       -3.5842057273
  C        12.7529072802        3.6816563295       -3.9603448225
  C        12.6616937486        3.2512442009       -5.2580647868
  C        13.3786438498        3.9606621167       -6.2988804237
  C        14.1400613983        5.0735775375       -5.8963268873
  C        14.2619032099        5.4468175032       -4.5761077774
  H        14.8028698884        6.4455999247       -4.3356418435
  H        14.6918835246        5.5562210250       -6.6776734941
  H        13.3277310140        3.7210584634       -7.3276499689
  H        11.9764739510        2.4695566110       -5.6290730207
  H        12.1354486271        3.1051691872       -3.2286170025
  C        19.7444140374        5.8830237122       -0.0589935984
  C        18.7711209367        6.7914900349        0.5160187878
  C        17.7632561199        7.3720175593       -0.2724821058
  C        16.6458690463        8.0763678361        0.3539447788
  C        15.6331932939        8.6214835394       -0.3315052840
  C        18.8952114962        7.2170157100        1.9403796045
  C        19.8821141907        8.1775181465        2.1701552603
  C        20.1062496241        8.5930509692        3.5084254421
  C        19.3133512511        8.0820050497        4.5368198309
  C        18.3870590398        7.0486277125        4.3518868195
  C        18.1105756054        6.6291946767        3.0235400614
  H        16.6996279173        8.1546151439        1.4714139236
  H        14.7539447102        9.0673770263        0.1445874135
  H        20.2631149444        8.7108874852        1.3288513262
  H        20.8806114721        9.3715042390        3.7870007635
  H        19.5108526811        8.5085951571        5.4931971787
  H        17.8532380295        6.5527380866        5.1285974311
  H        17.3270782541        5.8358830423        2.9136482472
  C        19.8359410366        5.8991515312       -1.5572768016
  C        20.8447367336        5.0861848434       -2.1406329245
  C        21.8479263712        4.4579324589       -1.3212662653
  C        21.7629504991        4.6330751107        0.1472570233
  C        20.6788066780        5.2370188955        0.7948022606
  C        17.6381492107        7.1541116959       -1.6841000941
  C        18.7863084756        6.5606238022       -2.3109452702
  C        18.8686170629        6.7863544378       -3.7472095344
  C        19.8771621452        7.6933529014       -4.1385326225
  C        19.9415331582        8.2507621521       -5.4553275041
  C        18.9313358223        7.9096395285       -6.3487716680
  C        18.0039440648        6.9137541838       -6.0430303991
  C        17.9273552068        6.3366163763       -4.7327889697
  H        17.2248671480        5.5483399356       -4.4236228905
  H        17.2524128065        6.4691944111       -6.6984651407
  H        18.9076517199        8.3463029524       -7.3857484522
  H        20.7602246996        8.9282197567       -5.6871503868
  H        20.6168982152        7.9674508122       -3.4010546039
  C        16.4809030575        7.6252604534       -2.4292124343
  C        15.5527758337        8.3577203793       -1.7210900477
  H        14.6860622203        8.8103811249       -2.2530070537
  H        16.4127283441        7.5176833049       -3.4812395144
  C        20.5308729281        4.9115713827        2.2969618989
  C        19.9122270931        3.7578741834        2.6359904940
  C        20.0850489483        3.1010278608        3.8547504042
  C        20.8813634611        3.6727646925        4.8431608740
  C        21.5608628552        4.8907863467        4.5483541159
  C        21.3268773189        5.5055569123        3.2628741211
  H        21.8749350872        6.4233755318        3.1364901156
  H        22.3182922559        5.3491553136        5.1746728342
  H        20.9400199080        3.1935710881        5.8161435508
  H        19.6334633979        2.1004234275        4.0235252934
  H        19.3611770073        3.2299816362        1.9089179787
  C        22.8288402110        4.0196033764        0.9473925607
  C        23.8281135057        3.3284146522        0.3412338853
  C        23.8964964504        3.1779441037       -1.0710097162
  C        22.9433147277        3.7763269843       -1.8686883415
  H        22.9228111797        3.6453945045       -3.0008277153
  H        24.6444447339        2.5713992935       -1.5504096896
  H        24.5708523657        2.8173725818        0.9784541826
  H        22.7974284663        4.1961344087        2.0191426800
  C        20.7306157331        4.6309013272       -3.5737564180
  C        19.7508666156        3.7134456952       -3.8758475134
  C        19.6550284602        3.1557895051       -5.1756558404
  C        20.4671427323        3.6020628554       -6.2122033618
  C        21.4178467538        4.5927333739       -5.9108358941
  C        21.5560897817        5.1523401656       -4.6421808873
  H        22.4131481527        5.7526225311       -4.4181467764
  H        22.0601919617        4.8968550468       -6.7206005816
  H        20.3544163108        3.2285883806       -7.2288056942
  H        18.9119751526        2.4120631611       -5.4306037508
  H        19.1376374548        3.2757048053       -3.1346055328
